# File generated by Flopy version 3.9.0.dev2 on 12/19/2024 at 19:45:56.
BEGIN options
  BUDGET  FILEOUT  ex-gwf-fhb.cbc
  HEAD  FILEOUT  ex-gwf-fhb.hds
END options

BEGIN period  1
  SAVE  HEAD  ALL
  SAVE  BUDGET  ALL
END period  1

