# File generated by Flopy version 3.9.0.dev2 on 12/19/2024 at 19:45:56.
BEGIN options
  TIME_UNITS  days
END options

BEGIN dimensions
  NPER  3
END dimensions

BEGIN perioddata
     400.00000000  10       1.00000000
     200.00000000  4       1.00000000
     400.00000000  6       1.00000000
END perioddata

