# File generated by Flopy version 3.9.0.dev2 on 12/19/2024 at 19:45:56.
BEGIN options
END options

BEGIN timing
  TDIS6  ex-gwf-fhb.tdis
END timing

BEGIN models
  gwf6  ex-gwf-fhb.nam  ex-gwf-fhb
END models

BEGIN exchanges
END exchanges

BEGIN solutiongroup  1
  ims6  ex-gwf-fhb.ims  ex-gwf-fhb
END solutiongroup  1

