# File generated by Flopy version 3.9.0.dev2 on 12/19/2024 at 19:48:25.
BEGIN options
  SAVE_FLOWS
END options

BEGIN packages
  DIS6  ex-gwf-twri01.dis  dis
  NPF6  ex-gwf-twri01.npf  npf
  IC6  ex-gwf-twri01.ic  ic
  CHD6  ex-gwf-twri01.chd  chd_0
  DRN6  ex-gwf-twri01.drn  drn_0
  WEL6  ex-gwf-twri01.wel  wel_0
  RCH6  ex-gwf-twri01.rcha  rcha_0
  OC6  ex-gwf-twri01.oc  oc
END packages

