# File generated by Flopy version 3.9.0.dev2 on 12/19/2024 at 19:48:25.
BEGIN options
  TIME_UNITS  seconds
END options

BEGIN dimensions
  NPER  1
END dimensions

BEGIN perioddata
   86400.00000000  1       1.00000000
END perioddata

