# File generated by Flopy version 3.9.0.dev2 on 12/19/2024 at 19:48:25.
BEGIN options
  READASARRAYS
END options

BEGIN period  1
  recharge
    CONSTANT  3.00000000E-08
END period  1

