# File generated by Flopy version 3.9.0.dev2 on 12/19/2024 at 19:46:24.
BEGIN options
END options

BEGIN continuous  FILEOUT  ex-gwf-advtidal.obs.flow.csv
  icf1  flow-ja-face  1 5 6  1 6 6
END continuous  FILEOUT  ex-gwf-advtidal.obs.flow.csv

BEGIN continuous  FILEOUT  ex-gwf-advtidal.obs.head.csv
  h1_13_8  head  3 13 8
END continuous  FILEOUT  ex-gwf-advtidal.obs.head.csv

