# File generated by Flopy version 3.9.0.dev2 on 12/19/2024 at 19:46:23.
BEGIN options
END options

BEGIN timing
  TDIS6  ex-gwf-advtidal.tdis
END timing

BEGIN models
  gwf6  ex-gwf-advtidal.nam  ex-gwf-advtidal
END models

BEGIN exchanges
END exchanges

BEGIN solutiongroup  1
  ims6  ex-gwf-advtidal.ims  ex-gwf-advtidal
END solutiongroup  1

