# File generated by Flopy version 3.9.2 on 05/21/2025 at 13:09:50.
BEGIN options
  READASARRAYS
END options

BEGIN period  1
  recharge
    CONSTANT  6.34195840E-09
END period  1

