# File generated by Flopy version 3.9.2 on 05/21/2025 at 13:09:49.
BEGIN options
  COMPLEXITY  complex
END options

BEGIN nonlinear
  OUTER_DVCLOSE       0.10000000
  OUTER_MAXIMUM  150
  BACKTRACKING_NUMBER  20
END nonlinear

BEGIN linear
  INNER_MAXIMUM  50
  INNER_DVCLOSE  1.00000000E-04
  LINEAR_ACCELERATION  bicgstab
END linear

