# File generated by Flopy version 3.9.2 on 05/21/2025 at 13:09:49.
BEGIN options
  TIME_UNITS  seconds
END options

BEGIN dimensions
  NPER  6
END dimensions

BEGIN perioddata
       1.00000000  1       1.00000000
  1.26144000E+08  1       1.00000000
  1.26144000E+08  1       1.00000000
  1.26144000E+08  1       1.00000000
  1.26144000E+08  1       1.00000000
  1.26144000E+08  1       1.00000000
END perioddata

