# File generated by Flopy version 3.9.2 on 05/21/2025 at 13:09:50.
BEGIN options
  HEAD  FILEOUT  mf6Model.hds
END options

BEGIN period  1
  SAVE  HEAD  LAST
END period  1

