# File generated by Flopy version 3.9.2 on 05/21/2025 at 13:09:49.
BEGIN options
  SAVE_FLOWS
  NEWTON  UNDER_RELAXATION
END options

BEGIN packages
  DISV6  mf6Model.disv  disv
  IC6  mf6Model.ic  ic
  NPF6  mf6Model.npf  npf
  STO6  mf6Model.sto  sto
  RCH6  mf6Model.rcha  rcha_0
  EVT6  mf6Model.evta  evta_0
  DRN6  mf6Model.drn  drn_0
  OC6  mf6Model.oc  oc
END packages

