# File generated by Flopy version 3.9.2 on 05/21/2025 at 13:09:49.
BEGIN options
END options

BEGIN timing
  TDIS6  mf6Model.tdis
END timing

BEGIN models
  gwf6  mf6Model.nam  mf6Model
END models

BEGIN exchanges
END exchanges

BEGIN solutiongroup  1
  ims6  mf6Model.ims  mf6Model
END solutiongroup  1

