# File generated by Flopy version 3.9.2 on 05/22/2025 at 14:35:04.
BEGIN options
END options

BEGIN dimensions
  NLAY  5
  NCPL  7985
  NVERT  14732
END dimensions

BEGIN griddata
  top
    INTERNAL  FACTOR  1.0
      4184.00000000    4217.00000000    4222.00000000    4210.00000000    4279.00000000    4230.00000000    4234.00000000    4100.00000000    4175.00000000    4188.00000000    4196.00000000    4146.00000000    4176.00000000    4115.00000000    4220.00000000    4235.00000000    4166.00000000    4152.00000000    4153.00000000    4143.00000000
      4212.00000000    4223.00000000    4186.00000000    4151.00000000    4113.00000000    4132.00000000    4113.00000000    4082.00000000    4217.00000000    4212.00000000    4107.00000000    4069.00000000    4207.00000000    4226.00000000    4200.00000000    4189.00000000    4160.00000000    4117.00000000    4214.00000000    4174.00000000
      4099.00000000    4143.00000000    4168.00000000    4188.00000000    4195.00000000    4210.00000000    4205.00000000    4234.00000000    4159.00000000    4243.00000000    4206.00000000    4153.00000000    4175.00000000    4123.00000000    4114.00000000    4092.00000000    4083.00000000    4058.00000000    4164.00000000    4052.00000000
      4134.00000000    4089.00000000    4140.00000000    4173.00000000    4172.00000000    4182.00000000    4238.00000000    4133.00000000    4254.00000000    4273.00000000    4221.00000000    4210.00000000    4173.00000000    4102.00000000    4122.00000000    4048.00000000    4105.00000000    4087.00000000    4076.00000000    4070.00000000
      4036.00000000    4079.00000000    4047.00000000    4114.00000000    4061.00000000    4144.00000000    4148.00000000    4169.00000000    4060.00000000    4234.00000000    4296.00000000    4303.00000000    4138.00000000    4201.00000000    4063.00000000    4185.00000000    3997.00000000    4155.00000000    4031.00000000    4102.00000000
      4038.00000000    4080.00000000    4031.00000000    4040.00000000    4084.00000000    4018.00000000    4181.00000000    4023.00000000    4220.00000000    4120.00000000    4249.00000000    3994.00000000    4300.00000000    4294.00000000    4057.00000000    4105.00000000    4085.00000000    4061.00000000    4076.00000000    4150.00000000
      4203.00000000    4096.00000000    4133.00000000    4117.00000000    4063.00000000    3988.00000000    4216.00000000    4237.00000000    3994.00000000    4237.00000000    3985.00000000    4168.00000000    4012.00000000    4118.00000000    4078.00000000    4037.00000000    4148.00000000    4028.00000000    4224.00000000    4254.00000000
      3999.00000000    4082.00000000    4283.00000000    4309.00000000    4066.00000000    4119.00000000    4044.00000000    4048.00000000    4051.00000000    4034.00000000    4108.00000000    4034.00000000    4146.00000000    4125.00000000    4066.00000000    4127.00000000    4075.00000000    4074.00000000    4106.00000000    3966.00000000
      4135.00000000    3937.00000000    4178.00000000    3998.00000000    4181.00000000    4056.00000000    4205.00000000    4118.00000000    4196.00000000    4187.00000000    4153.00000000    4260.00000000    4137.00000000    4232.00000000    4027.00000000    4245.00000000    4077.00000000    4283.00000000    4332.00000000    4149.00000000
      4111.00000000    4002.00000000    4089.00000000    3989.00000000    4077.00000000    4044.00000000    3988.00000000    4014.00000000    4043.00000000    4002.00000000    4076.00000000    4000.00000000    4112.00000000    4003.00000000    4105.00000000    4045.00000000    4026.00000000    4090.00000000    3939.00000000    4102.00000000
      3945.00000000    4110.00000000    4018.00000000    4119.00000000    4117.00000000    4136.00000000    4184.00000000    4174.00000000    4169.00000000    4193.00000000    4140.00000000    4192.00000000    4139.00000000    4138.00000000    4175.00000000    4233.00000000    4032.00000000    4326.00000000    4003.00000000    4308.00000000
      3989.00000000    4332.00000000    4164.00000000    4160.00000000    4124.00000000    3981.00000000    4121.00000000    3944.00000000    4107.00000000    4004.00000000    4100.00000000    4069.00000000    4073.00000000    4102.00000000    4032.00000000    4107.00000000    3999.00000000    4102.00000000    3973.00000000    3996.00000000
      3976.00000000    3897.00000000    4043.00000000    3947.00000000    4083.00000000    4066.00000000    4081.00000000    4133.00000000    4072.00000000    4085.00000000    4106.00000000    4066.00000000    4143.00000000    4061.00000000    4166.00000000    4148.00000000    4163.00000000    4213.00000000    4159.00000000    4261.00000000
      4136.00000000    4292.00000000    4075.00000000    4267.00000000    4288.00000000    4024.00000000    4282.00000000    4297.00000000    3997.00000000    4061.00000000    4272.00000000    4306.00000000    4323.00000000    4191.00000000    4170.00000000    4158.00000000    4030.00000000    4143.00000000    3918.00000000    4153.00000000
      4022.00000000    4155.00000000    4074.00000000    4110.00000000    4048.00000000    4068.00000000    4031.00000000    4054.00000000    3952.00000000    4004.00000000    3879.00000000    3984.00000000    3936.00000000    3966.00000000    4033.00000000    4051.00000000    4060.00000000    4074.00000000    4011.00000000    4049.00000000
      4001.00000000    4062.00000000    4117.00000000    4144.00000000    4206.00000000    4194.00000000    4172.00000000    4139.00000000    4189.00000000    4086.00000000    4234.00000000    4100.00000000    4165.00000000    4146.00000000    4214.00000000    4079.00000000    4197.00000000    4052.00000000    4209.00000000    4270.00000000
      4053.00000000    3995.00000000    4339.00000000    4352.00000000    3945.00000000    4084.00000000    4185.00000000    4179.00000000    4173.00000000    4017.00000000    4188.00000000    3871.00000000    4163.00000000    4013.00000000    4118.00000000    4034.00000000    4089.00000000    4005.00000000    4083.00000000    3968.00000000
      4049.00000000    3913.00000000    4014.00000000    3885.00000000    3924.00000000    3921.00000000    3987.00000000    3969.00000000    4015.00000000    3966.00000000    3995.00000000    3961.00000000    4073.00000000    4071.00000000    4111.00000000    4119.00000000    4122.00000000    4111.00000000    4074.00000000    4083.00000000
      4009.00000000    4121.00000000    4063.00000000    4161.00000000    4106.00000000    4100.00000000    4023.00000000    4099.00000000    4006.00000000    4135.00000000    4035.00000000    4182.00000000    4295.00000000    3976.00000000    4321.00000000    3878.00000000    4327.00000000    3956.00000000    4355.00000000    4096.00000000
      4053.00000000    4174.00000000    4162.00000000    4117.00000000    3959.00000000    4110.00000000    3946.00000000    4110.00000000    3884.00000000    4102.00000000    3828.00000000    4071.00000000    3821.00000000    4017.00000000    3877.00000000    3948.00000000    3919.00000000    3893.00000000    3910.00000000    3961.00000000
      3888.00000000    3810.00000000    3824.00000000    3974.00000000    4028.00000000    3951.00000000    4021.00000000    4096.00000000    3960.00000000    3948.00000000    3914.00000000    4057.00000000    4042.00000000    3880.00000000    3879.00000000    4075.00000000    3872.00000000    4096.00000000    3889.00000000    4061.00000000
      3836.00000000    4067.00000000    3795.00000000    4129.00000000    3781.00000000    4230.00000000    3846.00000000    4275.00000000    3835.00000000    4271.00000000    3929.00000000    4250.00000000    3997.00000000    4242.00000000    4028.00000000    4275.00000000    4282.00000000    3930.00000000    4358.00000000    4314.00000000
      3998.00000000    4193.00000000    3822.00000000    3831.00000000    3992.00000000    4079.00000000    4086.00000000    3777.00000000    3772.00000000    3940.00000000    4035.00000000    3815.00000000    3971.00000000    3955.00000000    3865.00000000    3910.00000000    3895.00000000    3960.00000000    3913.00000000    3820.00000000
      3778.00000000    4046.00000000    3959.00000000    3891.00000000    3984.00000000    3930.00000000    3864.00000000    3851.00000000    3879.00000000    3797.00000000    3818.00000000    3834.00000000    3804.00000000    3832.00000000    4036.00000000    4026.00000000    3823.00000000    3992.00000000    3792.00000000    3781.00000000
      4090.00000000    3750.00000000    4166.00000000    3796.00000000    4216.00000000    3829.00000000    3804.00000000    4227.00000000    4207.00000000    3793.00000000    3871.00000000    4189.00000000    3915.00000000    4179.00000000    3922.00000000    4202.00000000    4257.00000000    3988.00000000    3870.00000000    4298.00000000
      4337.00000000    3871.00000000    4089.00000000    4085.00000000    3984.00000000    3932.00000000    4087.00000000    4009.00000000    4107.00000000    3804.00000000    3934.00000000    4138.00000000    3756.00000000    3744.00000000    3766.00000000    3784.00000000    4001.00000000    3791.00000000    4016.00000000    3861.00000000
      3887.00000000    3886.00000000    3749.00000000    3773.00000000    3781.00000000    3875.00000000    3895.00000000    3884.00000000    3909.00000000    3948.00000000    3781.00000000    3798.00000000    3916.00000000    3840.00000000    3805.00000000    3761.00000000    3769.00000000    3760.00000000    3802.00000000    3771.00000000
      3787.00000000    3804.00000000    3773.00000000    3762.00000000    4011.00000000    3793.00000000    4072.00000000    3737.00000000    4127.00000000    3761.00000000    4160.00000000    3782.00000000    3739.00000000    4191.00000000    3787.00000000    4151.00000000    3823.00000000    3830.00000000    4095.00000000    3853.00000000
      3781.00000000    4130.00000000    3835.00000000    4151.00000000    3751.00000000    3835.00000000    4229.00000000    3873.00000000    4290.00000000    3893.00000000    4323.00000000    3735.00000000    3748.00000000    4333.00000000    3710.00000000    3945.00000000    3865.00000000    3706.00000000    4074.00000000    3808.00000000
      3907.00000000    4055.00000000    3755.00000000    3888.00000000    3753.00000000    4056.00000000    3751.00000000    3736.00000000    3759.00000000    3769.00000000    3709.00000000    3705.00000000    4048.00000000    3953.00000000    3703.00000000    3715.00000000    4035.00000000    3751.00000000    3728.00000000    3773.00000000
      3885.00000000    3729.00000000    4011.00000000    3766.00000000    3767.00000000    3699.00000000    3749.00000000    3982.00000000    3724.00000000    3739.00000000    3725.00000000    4047.00000000    4035.00000000    3741.00000000    3782.00000000    3699.00000000    3724.00000000    3705.00000000    4094.00000000    3758.00000000
      3733.00000000    3686.00000000    4114.00000000    3690.00000000    3756.00000000    3738.00000000    3770.00000000    3718.00000000    3736.00000000    3763.00000000    3767.00000000    3743.00000000    3999.00000000    3964.00000000    3880.00000000    3817.00000000    3805.00000000    3837.00000000    3874.00000000    3702.00000000
      3785.00000000    3877.00000000    3890.00000000    3873.00000000    3804.00000000    3740.00000000    3741.00000000    3733.00000000    3790.00000000    3719.00000000    3848.00000000    3802.00000000    4110.00000000    3767.00000000    4133.00000000    4067.00000000    3837.00000000    3783.00000000    4121.00000000    3822.00000000
      4163.00000000    3830.00000000    4189.00000000    4216.00000000    3837.00000000    3850.00000000    4282.00000000    3793.00000000    3791.00000000    4294.00000000    3793.00000000    3850.00000000    4298.00000000    3901.00000000    3868.00000000    4301.00000000    4313.00000000    3709.00000000    3711.00000000    3721.00000000
      3744.00000000    3740.00000000    3830.00000000    3754.00000000    3764.00000000    3883.00000000    3855.00000000    3815.00000000    3685.00000000    3806.00000000    3738.00000000    3881.00000000    3960.00000000    3741.00000000    3837.00000000    3861.00000000    3742.00000000    3744.00000000    3727.00000000    3689.00000000
      3713.00000000    3741.00000000    3734.00000000    3686.00000000    3717.00000000    3935.00000000    3689.00000000    3960.00000000    3742.00000000    3711.00000000    3745.00000000    3748.00000000    3732.00000000    3961.00000000    3693.00000000    3947.00000000    3673.00000000    3770.00000000    3677.00000000    3681.00000000
      3736.00000000    3664.00000000    3706.00000000    3738.00000000    3741.00000000    3682.00000000    3654.00000000    3736.00000000    3759.00000000    3718.00000000    3766.00000000    4002.00000000    3762.00000000    3751.00000000    3740.00000000    3746.00000000    3742.00000000    3764.00000000    3743.00000000    3678.00000000
      3704.00000000    4017.00000000    3703.00000000    3769.00000000    3779.00000000    3725.00000000    3677.00000000    3726.00000000    3782.00000000    3778.00000000    4037.00000000    3755.00000000    3709.00000000    3828.00000000    3771.00000000    3680.00000000    3688.00000000    3713.00000000    3785.00000000    4030.00000000
      3717.00000000    3771.00000000    3779.00000000    3775.00000000    3753.00000000    3777.00000000    3742.00000000    3844.00000000    3972.00000000    4070.00000000    3770.00000000    3748.00000000    3795.00000000    3792.00000000    3756.00000000    3769.00000000    3836.00000000    3793.00000000    3886.00000000    4024.00000000
      3990.00000000    3826.00000000    3772.00000000    3785.00000000    3677.00000000    3677.00000000    3832.00000000    3839.00000000    3867.00000000    3832.00000000    3709.00000000    3677.00000000    3726.00000000    3724.00000000    3753.00000000    3871.00000000    3657.00000000    3649.00000000    3696.00000000    3691.00000000
      3758.00000000    3796.00000000    3828.00000000    3793.00000000    3791.00000000    4096.00000000    3847.00000000    3853.00000000    4156.00000000    3850.00000000    4225.00000000    4248.00000000    3905.00000000    4244.00000000    3934.00000000    4278.00000000    3846.00000000    3979.00000000    4279.00000000    3971.00000000
      3916.00000000    4265.00000000    3837.00000000    3881.00000000    4283.00000000    4318.00000000    3780.00000000    3839.00000000    3718.00000000    3816.00000000    3761.00000000    3807.00000000    3739.00000000    3743.00000000    3806.00000000    3944.00000000    3747.00000000    3986.00000000    3687.00000000    3655.00000000
      3695.00000000    3800.00000000    3801.00000000    3800.00000000    3997.00000000    3753.00000000    3684.00000000    3838.00000000    3814.00000000    3837.00000000    3703.00000000    3700.00000000    3819.00000000    3809.00000000    3807.00000000    3772.00000000    3753.00000000    3860.00000000    3894.00000000    3803.00000000
      3803.00000000    3767.00000000    3763.00000000    3817.00000000    3769.00000000    3759.00000000    3765.00000000    3887.00000000    3857.00000000    3868.00000000    3723.00000000    3880.00000000    3700.00000000    3761.00000000    3772.00000000    3760.00000000    4036.00000000    3809.00000000    3845.00000000    3714.00000000
      3940.00000000    3829.00000000    3771.00000000    3815.00000000    3739.00000000    3765.00000000    3826.00000000    3839.00000000    3837.00000000    4119.00000000    3998.00000000    3793.00000000    3644.00000000    3851.00000000    3823.00000000    3712.00000000    3762.00000000    3727.00000000    3798.00000000    3805.00000000
      3823.00000000    3676.00000000    3800.00000000    3782.00000000    3782.00000000    3785.00000000    3779.00000000    3857.00000000    3897.00000000    4167.00000000    3885.00000000    3782.00000000    3788.00000000    3694.00000000    3671.00000000    4051.00000000    3665.00000000    3773.00000000    3696.00000000    3818.00000000
      3818.00000000    3890.00000000    3776.00000000    3779.00000000    3808.00000000    3786.00000000    3836.00000000    3810.00000000    4223.00000000    3772.00000000    3792.00000000    3866.00000000    3866.00000000    3816.00000000    4036.00000000    3701.00000000    3649.00000000    3933.00000000    3858.00000000    3913.00000000
      3966.00000000    3813.00000000    3857.00000000    3728.00000000    3700.00000000    3806.00000000    3816.00000000    3781.00000000    3748.00000000    3789.00000000    3819.00000000    3723.00000000    3673.00000000    3657.00000000    3724.00000000    3694.00000000    3691.00000000    3720.00000000    3693.00000000    3997.00000000
      3959.00000000    3789.00000000    3807.00000000    3799.00000000    4252.00000000    3796.00000000    3846.00000000    4229.00000000    3888.00000000    3906.00000000    4248.00000000    3855.00000000    4229.00000000    3865.00000000    4254.00000000    3990.00000000    3971.00000000    4306.00000000    4295.00000000    3786.00000000
      3803.00000000    3806.00000000    4008.00000000    3889.00000000    3808.00000000    3932.00000000    3758.00000000    3829.00000000    3981.00000000    3731.00000000    3807.00000000    3826.00000000    3834.00000000    3789.00000000    3829.00000000    3809.00000000    3982.00000000    3827.00000000    3897.00000000    3879.00000000
      3818.00000000    3788.00000000    3821.00000000    3826.00000000    3873.00000000    3686.00000000    3808.00000000    3719.00000000    3800.00000000    3854.00000000    3939.00000000    3646.00000000    3830.00000000    3814.00000000    3820.00000000    3831.00000000    3833.00000000    3817.00000000    3827.00000000    3832.00000000
      4028.00000000    3818.00000000    3770.00000000    3864.00000000    3831.00000000    3700.00000000    3695.00000000    3855.00000000    3869.00000000    3848.00000000    4010.00000000    3885.00000000    3880.00000000    4101.00000000    3853.00000000    3896.00000000    3903.00000000    3868.00000000    3837.00000000    3879.00000000
      4153.00000000    3900.00000000    3881.00000000    3782.00000000    3648.00000000    3632.00000000    4041.00000000    3861.00000000    3871.00000000    3943.00000000    3680.00000000    3873.00000000    3916.00000000    3647.00000000    3638.00000000    3631.00000000    3897.00000000    4016.00000000    3818.00000000    3974.00000000
      3878.00000000    3904.00000000    3926.00000000    3730.00000000    3754.00000000    3737.00000000    3731.00000000    3734.00000000    3842.00000000    3728.00000000    3771.00000000    3729.00000000    3711.00000000    3720.00000000    3709.00000000    3670.00000000    3685.00000000    3853.00000000    3905.00000000    3751.00000000
      3966.00000000    3780.00000000    3817.00000000    3663.00000000    3935.00000000    3925.00000000    3918.00000000    3891.00000000    3956.00000000    3880.00000000    4188.00000000    3906.00000000    4203.00000000    3934.00000000    4227.00000000    3880.00000000    4218.00000000    3982.00000000    3980.00000000    4237.00000000
      3873.00000000    4042.00000000    4004.00000000    4275.00000000    3926.00000000    3849.00000000    3731.00000000    3683.00000000    3921.00000000    3751.00000000    3821.00000000    3901.00000000    3885.00000000    3941.00000000    3688.00000000    3838.00000000    3721.00000000    3966.00000000    3722.00000000    3671.00000000
      3621.00000000    4118.00000000    4076.00000000    3930.00000000    3647.00000000    3891.00000000    3799.00000000    3987.00000000    3655.00000000    3891.00000000    3888.00000000    4110.00000000    3622.00000000    3707.00000000    3897.00000000    3711.00000000    4108.00000000    4021.00000000    3779.00000000    3984.00000000
      3863.00000000    3743.00000000    3796.00000000    3768.00000000    3653.00000000    3702.00000000    3732.00000000    3681.00000000    3625.00000000    3908.00000000    3659.00000000    3913.00000000    3861.00000000    3629.00000000    3711.00000000    4141.00000000    3941.00000000    3737.00000000    3757.00000000    3850.00000000
      3862.00000000    3745.00000000    3868.00000000    3933.00000000    3980.00000000    3818.00000000    3836.00000000    3842.00000000    3851.00000000    3898.00000000    3731.00000000    3715.00000000    3731.00000000    3729.00000000    3720.00000000    3736.00000000    3732.00000000    3740.00000000    3634.00000000    3678.00000000
      3640.00000000    3899.00000000    3672.00000000    3623.00000000    4018.00000000    3808.00000000    3713.00000000    3699.00000000    4068.00000000    3860.00000000    3989.00000000    3908.00000000    3942.00000000    3868.00000000    3870.00000000    3897.00000000    3907.00000000    3916.00000000    3900.00000000    4213.00000000
      3879.00000000    4199.00000000    3908.00000000    4189.00000000    3938.00000000    4231.00000000    4283.00000000    3954.00000000    4308.00000000    4310.00000000    3884.00000000    3910.00000000    4023.00000000    4118.00000000    3871.00000000    3852.00000000    3677.00000000    3643.00000000    3696.00000000    3881.00000000
      3829.00000000    3701.00000000    3628.00000000    3947.00000000    3661.00000000    3954.00000000    3882.00000000    3990.00000000    3617.00000000    3900.00000000    3873.00000000    3929.00000000    3645.00000000    4029.00000000    4216.00000000    3704.00000000    3889.00000000    3654.00000000    3726.00000000    3883.00000000
      3944.00000000    3888.00000000    3614.00000000    3701.00000000    3874.00000000    3884.00000000    3887.00000000    3644.00000000    3881.00000000    3963.00000000    3614.00000000    3934.00000000    4054.00000000    3885.00000000    3696.00000000    3725.00000000    3681.00000000    3689.00000000    3628.00000000    3704.00000000
      3901.00000000    3934.00000000    4134.00000000    4168.00000000    3632.00000000    3893.00000000    3716.00000000    3889.00000000    3927.00000000    3636.00000000    3608.00000000    3749.00000000    3865.00000000    3785.00000000    3672.00000000    3668.00000000    3609.00000000    3627.00000000    3719.00000000    3962.00000000
      3768.00000000    3777.00000000    3684.00000000    3648.00000000    3804.00000000    3711.00000000    3861.00000000    3716.00000000    3674.00000000    3738.00000000    3713.00000000    3712.00000000    3641.00000000    3680.00000000    3707.00000000    3951.00000000    3701.00000000    4177.00000000    3781.00000000    3831.00000000
      3988.00000000    4060.00000000    4046.00000000    4041.00000000    3990.00000000    3894.00000000    3940.00000000    3976.00000000    3946.00000000    3903.00000000    3936.00000000    3891.00000000    3908.00000000    3965.00000000    3995.00000000    3972.00000000    4159.00000000    3960.00000000    3909.00000000    4199.00000000
      4237.00000000    4271.00000000    3995.00000000    3925.00000000    3947.00000000    4304.00000000    4284.00000000    3878.00000000    3887.00000000    3661.00000000    3738.00000000    3840.00000000    3804.00000000    3882.00000000    4065.00000000    4036.00000000    3695.00000000    3647.00000000    3923.00000000    3632.00000000
      4161.00000000    3692.00000000    3725.00000000    4108.00000000    4051.00000000    3595.00000000    4088.00000000    3688.00000000    3626.00000000    3687.00000000    3871.00000000    3941.00000000    3691.00000000    3906.00000000    3640.00000000    3691.00000000    3889.00000000    3627.00000000    3644.00000000    3661.00000000
      3943.00000000    3924.00000000    3926.00000000    3678.00000000    3627.00000000    3598.00000000    3911.00000000    3914.00000000    4121.00000000    3629.00000000    3907.00000000    3601.00000000    3706.00000000    3595.00000000    3692.00000000    3695.00000000    3604.00000000    3673.00000000    3977.00000000    3631.00000000
      3595.00000000    3721.00000000    3698.00000000    3691.00000000    3768.00000000    3652.00000000    3696.00000000    3640.00000000    3587.00000000    3631.00000000    3650.00000000    3645.00000000    3683.00000000    3611.00000000    3653.00000000    3950.00000000    3755.00000000    3972.00000000    3806.00000000    3750.00000000
      3744.00000000    4089.00000000    3784.00000000    3860.00000000    4141.00000000    4061.00000000    4032.00000000    4015.00000000    3991.00000000    3959.00000000    3909.00000000    3905.00000000    3971.00000000    4028.00000000    3952.00000000    3937.00000000    3997.00000000    3902.00000000    3933.00000000    4100.00000000
      3903.00000000    4188.00000000    4235.00000000    3890.00000000    3916.00000000    4263.00000000    3959.00000000    4271.00000000    3894.00000000    3920.00000000    4283.00000000    4374.00000000    4148.00000000    3660.00000000    4077.00000000    3914.00000000    3975.00000000    3719.00000000    3592.00000000    3876.00000000
      3663.00000000    3643.00000000    3963.00000000    4170.00000000    3677.00000000    3570.00000000    3816.00000000    3990.00000000    3579.00000000    3667.00000000    3673.00000000    3681.00000000    3615.00000000    3616.00000000    3923.00000000    3889.00000000    3647.00000000    4058.00000000    3588.00000000    3884.00000000
      3624.00000000    3897.00000000    3667.00000000    3901.00000000    4050.00000000    3725.00000000    3573.00000000    3901.00000000    3626.00000000    3602.00000000    3947.00000000    3546.00000000    4057.00000000    3930.00000000    3674.00000000    3603.00000000    3953.00000000    3930.00000000    3565.00000000    3771.00000000
      3577.00000000    4117.00000000    3997.00000000    3956.00000000    3580.00000000    3605.00000000    3636.00000000    3641.00000000    3716.00000000    3606.00000000    3663.00000000    3621.00000000    3645.00000000    3618.00000000    3643.00000000    3846.00000000    3634.00000000    3799.00000000    3896.00000000    3597.00000000
      3726.00000000    3967.00000000    3826.00000000    4189.00000000    3792.00000000    4159.00000000    4114.00000000    4071.00000000    4054.00000000    4014.00000000    3906.00000000    3910.00000000    3995.00000000    4015.00000000    3926.00000000    3962.00000000    4027.00000000    3982.00000000    3945.00000000    4171.00000000
      3939.00000000    4191.00000000    3927.00000000    4220.00000000    3982.00000000    4233.00000000    3926.00000000    4247.00000000    3925.00000000    3951.00000000    4284.00000000    4282.00000000    3598.00000000    3538.00000000    3617.00000000    3914.00000000    3710.00000000    3567.00000000    4026.00000000    3896.00000000
      3540.00000000    4147.00000000    4084.00000000    3908.00000000    3614.00000000    3620.00000000    3638.00000000    3597.00000000    3948.00000000    3578.00000000    3922.00000000    3589.00000000    4160.00000000    3597.00000000    3604.00000000    4079.00000000    3532.00000000    3557.00000000    3644.00000000    3966.00000000
      3569.00000000    3666.00000000    3564.00000000    4030.00000000    3583.00000000    3766.00000000    3839.00000000    3576.00000000    3926.00000000    3634.00000000    3602.00000000    3551.00000000    4117.00000000    3607.00000000    3581.00000000    3548.00000000    3548.00000000    3573.00000000    3910.00000000    4158.00000000
      3963.00000000    3981.00000000    3636.00000000    3902.00000000    3637.00000000    3626.00000000    3569.00000000    3598.00000000    3595.00000000    3537.00000000    3936.00000000    3576.00000000    3718.00000000    3563.00000000    3516.00000000    3572.00000000    3500.00000000    3563.00000000    3500.00000000    3951.00000000
      3562.00000000    3599.00000000    3987.00000000    3925.00000000    3862.00000000    3593.00000000    3612.00000000    3516.00000000    3519.00000000    3553.00000000    3504.00000000    3628.00000000    4023.00000000    3638.00000000    3590.00000000    3721.00000000    3945.00000000    3587.00000000    3625.00000000    3582.00000000
      3968.00000000    3563.00000000    3563.00000000    3567.00000000    4204.00000000    3584.00000000    3888.00000000    3893.00000000    4139.00000000    4156.00000000    4074.00000000    3939.00000000    3917.00000000    4074.00000000    4051.00000000    4080.00000000    4015.00000000    3970.00000000    3947.00000000    3993.00000000
      3904.00000000    3939.00000000    3926.00000000    4211.00000000    3936.00000000    4205.00000000    4245.00000000    3972.00000000    4266.00000000    4294.00000000    4017.00000000    4296.00000000    3936.00000000    3915.00000000    3550.00000000    4093.00000000    3936.00000000    3766.00000000    3531.00000000    4075.00000000
      3583.00000000    3557.00000000    3849.00000000    3550.00000000    3527.00000000    3493.00000000    3576.00000000    3583.00000000    3555.00000000    3524.00000000    3537.00000000    4113.00000000    3597.00000000    4062.00000000    4060.00000000    3506.00000000    3549.00000000    4117.00000000    3499.00000000    3502.00000000
      3525.00000000    3502.00000000    4133.00000000    3535.00000000    3540.00000000    3687.00000000    3626.00000000    3523.00000000    3520.00000000    3523.00000000    3531.00000000    3575.00000000    3535.00000000    3514.00000000    3649.00000000    3572.00000000    4032.00000000    3499.00000000    4021.00000000    4057.00000000
      3552.00000000    3552.00000000    3538.00000000    3551.00000000    3569.00000000    3550.00000000    3503.00000000    3485.00000000    3513.00000000    3774.00000000    3909.00000000    4191.00000000    3525.00000000    3551.00000000    3959.00000000    3520.00000000    3602.00000000    3555.00000000    3510.00000000    3573.00000000