# File generated by Flopy version 3.9.2 on 05/22/2025 at 14:35:04.
BEGIN options
  COMPLEXITY  complex
END options

BEGIN nonlinear
  OUTER_MAXIMUM  50
END nonlinear

BEGIN linear
  INNER_MAXIMUM  30
  LINEAR_ACCELERATION  bicgstab
END linear

