# File generated by Flopy version 3.9.2 on 05/22/2025 at 14:35:04.
BEGIN options
  READASARRAYS
END options

BEGIN period  1
  recharge
    CONSTANT  4.75646880E-09
END period  1

