# File generated by Flopy version 3.9.2 on 05/22/2025 at 14:35:04.
BEGIN options
  SAVE_SPECIFIC_DISCHARGE
END options

BEGIN griddata
  icelltype  LAYERED
    CONSTANT  1
    CONSTANT  1
    CONSTANT  0
    CONSTANT  0
    CONSTANT  0
  k  LAYERED
    CONSTANT  4.00000000E-04
    CONSTANT  5.00000000E-06
    CONSTANT  1.00000000E-06
    CONSTANT  9.00000000E-07
    CONSTANT  5.00000000E-07
END griddata

