# File generated by Flopy version 3.9.2 on 05/22/2025 at 14:35:04.
BEGIN options
END options

BEGIN dimensions
  MAXBOUND  817
END dimensions

BEGIN period  1
  1 449 3772 1.00000000E-02
  1 461 3778 1.00000000E-02
  1 515 3766 1.00000000E-02
  1 538 3760 1.00000000E-02
  1 572 3735 1.00000000E-02
  1 575 3710 1.00000000E-02
  1 578 3706 1.00000000E-02
  1 592 3705 1.00000000E-02
  1 595 3703 1.00000000E-02
  1 598 3751 1.00000000E-02
  1 599 3728 1.00000000E-02
  1 606 3699 1.00000000E-02
  1 611 3725 1.00000000E-02
  1 616 3699 1.00000000E-02
  1 622 3686 1.00000000E-02
  1 624 3690 1.00000000E-02
  1 629 3736 1.00000000E-02
  1 650 3719 1.00000000E-02
  1 682 3740 1.00000000E-02
  1 689 3685 1.00000000E-02
  1 691 3738 1.00000000E-02
  1 697 3742 1.00000000E-02
  1 700 3689 1.00000000E-02
  1 702 3741 1.00000000E-02
  1 704 3686 1.00000000E-02
  1 707 3689 1.00000000E-02
  1 713 3732 1.00000000E-02
  1 715 3693 1.00000000E-02
  1 717 3673 1.00000000E-02
  1 719 3677 1.00000000E-02
  1 720 3681 1.00000000E-02
  1 721 3736 1.00000000E-02
  1 722 3664 1.00000000E-02
  1 724 3738 1.00000000E-02
  1 726 3682 1.00000000E-02
  1 727 3654 1.00000000E-02
  1 736 3746 1.00000000E-02
  1 737 3742 1.00000000E-02
  1 740 3678 1.00000000E-02
  1 741 3704 1.00000000E-02
  1 747 3677 1.00000000E-02
  1 765 3753 1.00000000E-02
  1 772 3748 1.00000000E-02
  1 798 3649 1.00000000E-02
  1 823 3837 1.00000000E-02
  1 837 3747 1.00000000E-02
  1 840 3655 1.00000000E-02
  1 857 3753 1.00000000E-02
  1 863 3763 1.00000000E-02
  1 865 3769 1.00000000E-02
  1 866 3759 1.00000000E-02
  1 867 3765 1.00000000E-02
  1 875 3772 1.00000000E-02
  1 886 3765 1.00000000E-02
  1 892 3793 1.00000000E-02
  1 893 3644 1.00000000E-02
  1 897 3762 1.00000000E-02
  1 899 3798 1.00000000E-02
  1 903 3800 1.00000000E-02
  1 906 3785 1.00000000E-02
  1 907 3779 1.00000000E-02
  1 913 3788 1.00000000E-02
  1 917 3665 1.00000000E-02
  1 921 3818 1.00000000E-02
  1 923 3776 1.00000000E-02
  1 925 3808 1.00000000E-02
  1 926 3786 1.00000000E-02
  1 927 3836 1.00000000E-02
  1 928 3810 1.00000000E-02
  1 954 3657 1.00000000E-02
  1 964 3799 1.00000000E-02
  1 988 3829 1.00000000E-02
  1 992 3826 1.00000000E-02
  1 1012 3646 1.00000000E-02
  1 1025 3831 1.00000000E-02
  1 1035 3853 1.00000000E-02
  1 1046 3632 1.00000000E-02
  1 1055 3638 1.00000000E-02
  1 1056 3631 1.00000000E-02
  1 1078 3853 1.00000000E-02
  1 1106 3849 1.00000000E-02
  1 1121 3621 1.00000000E-02
  1 1133 3622 1.00000000E-02
  1 1141 3863 1.00000000E-02
  1 1146 3702 1.00000000E-02
  1 1149 3625 1.00000000E-02
  1 1153 3861 1.00000000E-02
  1 1160 3850 1.00000000E-02
  1 1161 3862 1.00000000E-02
  1 1184 3623 1.00000000E-02
  1 1201 3879 1.00000000E-02
  1 1211 3884 1.00000000E-02
  1 1219 3696 1.00000000E-02
  1 1223 3628 1.00000000E-02
  1 1229 3617 1.00000000E-02
  1 1243 3614 1.00000000E-02
  1 1245 3874 1.00000000E-02
  1 1257 3681 1.00000000E-02
  1 1268 3889 1.00000000E-02
  1 1271 3608 1.00000000E-02
  1 1275 3672 1.00000000E-02
  1 1277 3609 1.00000000E-02
  1 1284 3648 1.00000000E-02
  1 1312 3891 1.00000000E-02
  1 1329 3887 1.00000000E-02
  1 1346 3595 1.00000000E-02
  1 1358 3627 1.00000000E-02
  1 1366 3598 1.00000000E-02
  1 1372 3601 1.00000000E-02
  1 1374 3595 1.00000000E-02
  1 1377 3604 1.00000000E-02
  1 1418 3902 1.00000000E-02
  1 1424 3890 1.00000000E-02
  1 1429 3894 1.00000000E-02
  1 1439 3592 1.00000000E-02
  1 1446 3570 1.00000000E-02
  1 1449 3579 1.00000000E-02
  1 1456 3889 1.00000000E-02
  1 1467 3573 1.00000000E-02
  1 1472 3546 1.00000000E-02
  1 1479 3565 1.00000000E-02
  1 1511 3906 1.00000000E-02
  1 1534 3538 1.00000000E-02
  1 1538 3567 1.00000000E-02
  1 1541 3540 1.00000000E-02
  1 1544 3908 1.00000000E-02
  1 1557 3532 1.00000000E-02
  1 1558 3557 1.00000000E-02
  1 1572 3551 1.00000000E-02
  1 1584 3902 1.00000000E-02
  1 1595 3516 1.00000000E-02
  1 1597 3500 1.00000000E-02
  1 1599 3500 1.00000000E-02
  1 1611 3504 1.00000000E-02
  1 1641 3904 1.00000000E-02
  1 1654 3915 1.00000000E-02
  1 1655 3550 1.00000000E-02
  1 1659 3531 1.00000000E-02
  1 1666 3493 1.00000000E-02
  1 1671 3537 1.00000000E-02
  1 1676 3506 1.00000000E-02
  1 1677 3549 1.00000000E-02
  1 1679 3499 1.00000000E-02
  1 1680 3502 1.00000000E-02
  1 1682 3502 1.00000000E-02
  1 1684 3535 1.00000000E-02
  1 1689 3520 1.00000000E-02
  1 1690 3523 1.00000000E-02
  1 1691 3531 1.00000000E-02
  1 1694 3514 1.00000000E-02
  1 1698 3499 1.00000000E-02
  1 1701 3552 1.00000000E-02
  1 1703 3538 1.00000000E-02
  1 1708 3485 1.00000000E-02
  1 1709 3513 1.00000000E-02
  1 1711 3909 1.00000000E-02
  1 1716 3520 1.00000000E-02
  1 1724 3544 1.00000000E-02
  1 1725 3510 1.00000000E-02
  1 1730 3477 1.00000000E-02
  1 1732 3543 1.00000000E-02
  1 1738 3514 1.00000000E-02
  1 1741 3915 1.00000000E-02
  1 1748 3486 1.00000000E-02
  1 1792 3928 1.00000000E-02
  1 1820 3492 1.00000000E-02
  1 1841 3918 1.00000000E-02
  1 1849 3477 1.00000000E-02
  1 1871 3463 1.00000000E-02
  1 1884 3923 1.00000000E-02
  1 1929 3929 1.00000000E-02
  1 1931 3465 1.00000000E-02
  1 1940 3933 1.00000000E-02
  1 1943 3462 1.00000000E-02
  1 1958 3459 1.00000000E-02
  1 1969 3944 1.00000000E-02
  1 1972 3938 1.00000000E-02
  1 2022 3459 1.00000000E-02
  1 2037 3461 1.00000000E-02
  1 2062 3944 1.00000000E-02
  1 2081 3941 1.00000000E-02
  1 2105 3458 1.00000000E-02
  1 2113 3947 1.00000000E-02
  1 2116 3453 1.00000000E-02
  1 2145 3450 1.00000000E-02
  1 2158 3954 1.00000000E-02
  1 2170 3951 1.00000000E-02
  1 2193 3448 1.00000000E-02
  1 2211 3454 1.00000000E-02
  1 2220 3463 1.00000000E-02
  1 2238 3455 1.00000000E-02
  1 2268 3964 1.00000000E-02
  1 2275 3955 1.00000000E-02
  1 2295 3444 1.00000000E-02
  1 2296 3445 1.00000000E-02
  1 2314 3963 1.00000000E-02
  1 2326 3435 1.00000000E-02
  1 2343 3434 1.00000000E-02
  1 2384 3965 1.00000000E-02
  1 2387 3969 1.00000000E-02
  1 2412 3436 1.00000000E-02
  1 2419 3443 1.00000000E-02
  1 2423 3977 1.00000000E-02
  1 2429 3432 1.00000000E-02
  1 2432 3976 1.00000000E-02
  1 2434 3449 1.00000000E-02
  1 2435 3446 1.00000000E-02
  1 2441 3439 1.00000000E-02
  1 2443 3438 1.00000000E-02
  1 2450 3434 1.00000000E-02
  1 2465 3449 1.00000000E-02
  1 2488 3977 1.00000000E-02
  1 2508 3979 1.00000000E-02
  1 2517 3460 1.00000000E-02
  1 2520 3438 1.00000000E-02
  1 2528 3973 1.00000000E-02
  1 2535 3439 1.00000000E-02
  1 2541 3459 1.00000000E-02
  1 2548 3428 1.00000000E-02
  1 2560 3993 1.00000000E-02
  1 2564 3436 1.00000000E-02
  1 2565 3459 1.00000000E-02
  1 2581 3474 1.00000000E-02
  1 2583 3432 1.00000000E-02
  1 2606 3470 1.00000000E-02
  1 2619 3996 1.00000000E-02
  1 2627 3996 1.00000000E-02
  1 2636 3994 1.00000000E-02
  1 2644 3412 1.00000000E-02
  1 2647 3408 1.00000000E-02
  1 2650 3412 1.00000000E-02
  1 2659 3414 1.00000000E-02
  1 2660 3415 1.00000000E-02
  1 2665 3418 1.00000000E-02
  1 2668 3411 1.00000000E-02
  1 2672 3472 1.00000000E-02
  1 2674 3428 1.00000000E-02
  1 2681 3417 1.00000000E-02
  1 2684 3426 1.00000000E-02
  1 2687 3427 1.00000000E-02
  1 2689 4002 1.00000000E-02
  1 2691 3423 1.00000000E-02
  1 2693 3412 1.00000000E-02
  1 2694 3433 1.00000000E-02
  1 2695 3476 1.00000000E-02
  1 2697 3409 1.00000000E-02
  1 2698 3410 1.00000000E-02
  1 2699 3998 1.00000000E-02
  1 2700 4010 1.00000000E-02
  1 2702 3427 1.00000000E-02
  1 2703 4016 1.00000000E-02
  1 2718 3426 1.00000000E-02
  1 2737 3990 1.00000000E-02
  1 2741 3467 1.00000000E-02
  1 2747 3410 1.00000000E-02
  1 2753 3480 1.00000000E-02
  1 2777 4038 1.00000000E-02
  1 2821 3410 1.00000000E-02
  1 2824 3990 1.00000000E-02
  1 2837 3493 1.00000000E-02
  1 2848 4051 1.00000000E-02
  1 2852 3495 1.00000000E-02
  1 2853 3992 1.00000000E-02
  1 2856 3411 1.00000000E-02
  1 2870 3493 1.00000000E-02
  1 2877 4063 1.00000000E-02
  1 2878 4003 1.00000000E-02
  1 2884 3497 1.00000000E-02
  1 2885 4001 1.00000000E-02
  1 2887 4007 1.00000000E-02
  1 2895 3494 1.00000000E-02
  1 2902 4003 1.00000000E-02
  1 2906 3512 1.00000000E-02
  1 2908 3406 1.00000000E-02
  1 2915 3411 1.00000000E-02
  1 2937 4077 1.00000000E-02
  1 2949 4074 1.00000000E-02
  1 2968 4005 1.00000000E-02
  1 2982 3517 1.00000000E-02
  1 2984 3516 1.00000000E-02
  1 2987 3518 1.00000000E-02
  1 2991 4014 1.00000000E-02
  1 3009 4023 1.00000000E-02
  1 3011 4022 1.00000000E-02
  1 3017 4014 1.00000000E-02
  1 3018 4018 1.00000000E-02
  1 3023 4013 1.00000000E-02
  1 3029 4021 1.00000000E-02
  1 3032 3529 1.00000000E-02
  1 3039 4076 1.00000000E-02
  1 3043 3530 1.00000000E-02
  1 3049 3409 1.00000000E-02
  1 3051 4029 1.00000000E-02
  1 3056 4030 1.00000000E-02
  1 3057 4028 1.00000000E-02
  1 3066 3409 1.00000000E-02
  1 3075 4035 1.00000000E-02
  1 3080 4085 1.00000000E-02
  1 3095 3534 1.00000000E-02
  1 3144 4039 1.00000000E-02
  1 3158 3536 1.00000000E-02
  1 3169 3409 1.00000000E-02
  1 3172 4087 1.00000000E-02
  1 3174 4038 1.00000000E-02
  1 3177 4032 1.00000000E-02
  1 3178 3552 1.00000000E-02
  1 3189 3551 1.00000000E-02
  1 3191 4034 1.00000000E-02
  1 3200 3408 1.00000000E-02
  1 3204 3557 1.00000000E-02
  1 3208 4091 1.00000000E-02
  1 3216 4037 1.00000000E-02
  1 3217 3580 1.00000000E-02
  1 3223 3408 1.00000000E-02
  1 3225 3560 1.00000000E-02
  1 3233 3571 1.00000000E-02
  1 3244 4090 1.00000000E-02
  1 3248 3408 1.00000000E-02
  1 3267 3631 1.00000000E-02
  1 3271 3611 1.00000000E-02
  1 3305 4036 1.00000000E-02
  1 3319 3598 1.00000000E-02
  1 3326 3575 1.00000000E-02
  1 3338 3625 1.00000000E-02
  1 3352 3408 1.00000000E-02
  1 3365 3642 1.00000000E-02
  1 3371 4091 1.00000000E-02
  1 3385 4035 1.00000000E-02
  1 3386 4101 1.00000000E-02
  1 3394 3652 1.00000000E-02
  1 3401 3408 1.00000000E-02
  1 3403 4038 1.00000000E-02
  1 3406 4123 1.00000000E-02
  1 3416 3828 1.00000000E-02
  1 3421 4136 1.00000000E-02
  1 3428 4045 1.00000000E-02
  1 3436 4032 1.00000000E-02
  1 3439 3631 1.00000000E-02
  1 3440 4135 1.00000000E-02
  1 3442 3706 1.00000000E-02
  1 3443 4077 1.00000000E-02
  1 3445 4058 1.00000000E-02
  1 3451 3628 1.00000000E-02
  1 3455 3408 1.00000000E-02
  1 3464 3720 1.00000000E-02
  1 3465 3812 1.00000000E-02
  1 3484 3629 1.00000000E-02
  1 3486 3841 1.00000000E-02
  1 3511 4133 1.00000000E-02
  1 3519 3672 1.00000000E-02
  1 3521 3635 1.00000000E-02
  1 3526 4107 1.00000000E-02
  1 3527 4075 1.00000000E-02
  1 3528 4121 1.00000000E-02
  1 3532 3798 1.00000000E-02
  1 3533 3845 1.00000000E-02
  1 3534 3656 1.00000000E-02
  1 3537 4075 1.00000000E-02
  1 3539 3408 1.00000000E-02
  1 3541 3772 1.00000000E-02
  1 3542 3711 1.00000000E-02
  1 3546 3763 1.00000000E-02
  1 3550 4135 1.00000000E-02
  1 3559 3680 1.00000000E-02
  1 3560 3749 1.00000000E-02
  1 3561 3795 1.00000000E-02
  1 3563 3716 1.00000000E-02
  1 3567 3645 1.00000000E-02
  1 3569 4069 1.00000000E-02
  1 3571 3741 1.00000000E-02
  1 3572 4119 1.00000000E-02
  1 3573 3796 1.00000000E-02
  1 3574 4148 1.00000000E-02
  1 3575 4144 1.00000000E-02
  1 3578 4078 1.00000000E-02
  1 3598 3757 1.00000000E-02
  1 3599 3787 1.00000000E-02
  1 3608 4081 1.00000000E-02
  1 3609 3408 1.00000000E-02
  1 3613 3782 1.00000000E-02
  1 3616 4108 1.00000000E-02
  1 3617 3650 1.00000000E-02
  1 3639 3408 1.00000000E-02
  1 3643 4144 1.00000000E-02
  1 3666 3657 1.00000000E-02
  1 3674 4129 1.00000000E-02
  1 3677 4153 1.00000000E-02
  1 3678 3408 1.00000000E-02
  1 3718 4090 1.00000000E-02
  1 3720 4138 1.00000000E-02
  1 3759 4123 1.00000000E-02
  1 3763 3672 1.00000000E-02
  1 3765 4143 1.00000000E-02
  1 3789 3408 1.00000000E-02
  1 3793 3677 1.00000000E-02
  1 3799 4150 1.00000000E-02
  1 3804 4134 1.00000000E-02
  1 3814 3689 1.00000000E-02
  1 3818 4167 1.00000000E-02
  1 3821 4152 1.00000000E-02
  1 3823 3409 1.00000000E-02
  1 3825 4164 1.00000000E-02
  1 3837 4145 1.00000000E-02
  1 3843 3409 1.00000000E-02
  1 3846 3408 1.00000000E-02
  1 3851 4172 1.00000000E-02
  1 3872 3697 1.00000000E-02
  1 3918 3408 1.00000000E-02
  1 3924 4158 1.00000000E-02
  1 3928 4154 1.00000000E-02
  1 3929 3408 1.00000000E-02
  1 3933 3408 1.00000000E-02
  1 3937 3408 1.00000000E-02
  1 3947 4133 1.00000000E-02
  1 3957 3408 1.00000000E-02
  1 3960 3408 1.00000000E-02
  1 3965 3408 1.00000000E-02
  1 3968 3408 1.00000000E-02
  1 3973 3408 1.00000000E-02
  1 3975 3704 1.00000000E-02
  1 3985 3420 1.00000000E-02
  1 3986 3408 1.00000000E-02
  1 3987 3408 1.00000000E-02
  1 3996 3408 1.00000000E-02
  1 3999 3408 1.00000000E-02
  1 4004 3710 1.00000000E-02
  1 4005 3408 1.00000000E-02
  1 4008 4141 1.00000000E-02
  1 4011 3408 1.00000000E-02
  1 4013 4158 1.00000000E-02
  1 4018 3413 1.00000000E-02
  1 4024 3409 1.00000000E-02
  1 4031 3408 1.00000000E-02
  1 4032 3408 1.00000000E-02
  1 4045 3715 1.00000000E-02
  1 4078 4164 1.00000000E-02
  1 4084 4152 1.00000000E-02
  1 4100 3408 1.00000000E-02
  1 4109 3408 1.00000000E-02
  1 4116 3737 1.00000000E-02
  1 4118 3408 1.00000000E-02
  1 4123 4158 1.00000000E-02
  1 4130 4175 1.00000000E-02
  1 4135 3408 1.00000000E-02
  1 4152 4185 1.00000000E-02
  1 4155 4152 1.00000000E-02
  1 4168 3408 1.00000000E-02
  1 4169 4160 1.00000000E-02
  1 4172 3742 1.00000000E-02
  1 4186 3768 1.00000000E-02
  1 4196 3750 1.00000000E-02
  1 4214 4198 1.00000000E-02
  1 4220 4182 1.00000000E-02
  1 4245 3408 1.00000000E-02
  1 4258 4161 1.00000000E-02
  1 4263 4182 1.00000000E-02
  1 4275 3408 1.00000000E-02
  1 4280 3776 1.00000000E-02
  1 4294 4161 1.00000000E-02
  1 4297 3408 1.00000000E-02
  1 4314 4193 1.00000000E-02
  1 4331 3785 1.00000000E-02
  1 4332 3781 1.00000000E-02
  1 4359 4199 1.00000000E-02
  1 4371 4178 1.00000000E-02
  1 4374 4175 1.00000000E-02
  1 4387 3408 1.00000000E-02
  1 4398 3408 1.00000000E-02
  1 4409 3408 1.00000000E-02
  1 4417 3794 1.00000000E-02
  1 4422 4188 1.00000000E-02
  1 4430 4206 1.00000000E-02
  1 4448 4206 1.00000000E-02
  1 4449 4213 1.00000000E-02
  1 4455 3411 1.00000000E-02
  1 4471 3807 1.00000000E-02
  1 4509 4207 1.00000000E-02
  1 4533 3814 1.00000000E-02
  1 4540 4211 1.00000000E-02
  1 4544 3420 1.00000000E-02
  1 4561 3445 1.00000000E-02
  1 4563 4219 1.00000000E-02
  1 4571 3832 1.00000000E-02
  1 4578 4221 1.00000000E-02
  1 4580 3468 1.00000000E-02
  1 4602 3844 1.00000000E-02
  1 4613 3870 1.00000000E-02
  1 4630 4224 1.00000000E-02
  1 4643 4224 1.00000000E-02
  1 4653 4223 1.00000000E-02
  1 4678 4228 1.00000000E-02
  1 4680 3490 1.00000000E-02
  1 4685 4231 1.00000000E-02
  1 4699 3873 1.00000000E-02
  1 4708 4230 1.00000000E-02
  1 4709 3511 1.00000000E-02
  1 4710 3899 1.00000000E-02
  1 4769 4240 1.00000000E-02
  1 4798 3516 1.00000000E-02
  1 4800 4237 1.00000000E-02
  1 4801 4236 1.00000000E-02
  1 4809 4247 1.00000000E-02
  1 4811 3500 1.00000000E-02
  1 4822 3511 1.00000000E-02
  1 4824 3908 1.00000000E-02
  1 4835 3927 1.00000000E-02
  1 4841 4252 1.00000000E-02
  1 4842 4269 1.00000000E-02
  1 4846 3510 1.00000000E-02
  1 4875 3932 1.00000000E-02
  1 4890 4272 1.00000000E-02
  1 4904 4258 1.00000000E-02
  1 4924 4268 1.00000000E-02
  1 4940 3510 1.00000000E-02
  1 4944 3946 1.00000000E-02
  1 4952 4266 1.00000000E-02
  1 4955 3960 1.00000000E-02
  1 4958 3508 1.00000000E-02
  1 4972 4272 1.00000000E-02
  1 4982 3961 1.00000000E-02
  1 4988 3508 1.00000000E-02
  1 4992 4278 1.00000000E-02
  1 4995 3996 1.00000000E-02
  1 4996 3966 1.00000000E-02
  1 5004 3998 1.00000000E-02
  1 5009 4279 1.00000000E-02
  1 5019 3514 1.00000000E-02
  1 5031 3997 1.00000000E-02
  1 5068 4286 1.00000000E-02
  1 5093 4280 1.00000000E-02
  1 5099 3993 1.00000000E-02
  1 5114 4287 1.00000000E-02
  1 5115 4005 1.00000000E-02
  1 5125 4289 1.00000000E-02
  1 5131 4298 1.00000000E-02
  1 5132 4001 1.00000000E-02
  1 5133 3517 1.00000000E-02
  1 5142 4026 1.00000000E-02
  1 5152 4007 1.00000000E-02
  1 5154 3518 1.00000000E-02
  1 5161 4301 1.00000000E-02
  1 5164 4311 1.00000000E-02
  1 5165 4041 1.00000000E-02
  1 5171 4021 1.00000000E-02
  1 5180 3521 1.00000000E-02
  1 5237 4039 1.00000000E-02
  1 5249 4300 1.00000000E-02
  1 5255 4033 1.00000000E-02
  1 5256 4047 1.00000000E-02
  1 5258 4043 1.00000000E-02
  1 5267 4305 1.00000000E-02
  1 5273 4045 1.00000000E-02
  1 5274 3525 1.00000000E-02
  1 5278 4312 1.00000000E-02
  1 5289 4316 1.00000000E-02
  1 5290 4048 1.00000000E-02
  1 5310 4307 1.00000000E-02
  1 5318 4317 1.00000000E-02
  1 5322 4059 1.00000000E-02
  1 5329 3542 1.00000000E-02
  1 5350 4061 1.00000000E-02
  1 5360 4063 1.00000000E-02
  1 5401 3545 1.00000000E-02
  1 5405 3549 1.00000000E-02
  1 5410 4318 1.00000000E-02
  1 5427 3543 1.00000000E-02
  1 5433 3544 1.00000000E-02
  1 5435 4311 1.00000000E-02
  1 5438 4083 1.00000000E-02
  1 5446 4320 1.00000000E-02
  1 5454 4069 1.00000000E-02
  1 5465 3545 1.00000000E-02
  1 5470 4334 1.00000000E-02
  1 5473 4328 1.00000000E-02
  1 5486 3552 1.00000000E-02
  1 5493 3807 1.00000000E-02
  1 5547 4332 1.00000000E-02
  1 5557 3819 1.00000000E-02
  1 5563 3804 1.00000000E-02
  1 5566 4077 1.00000000E-02
  1 5567 4335 1.00000000E-02
  1 5569 3825 1.00000000E-02
  1 5581 4100 1.00000000E-02
  1 5586 4096 1.00000000E-02
  1 5589 4086 1.00000000E-02
  1 5596 3559 1.00000000E-02
  1 5600 3805 1.00000000E-02
  1 5601 3834 1.00000000E-02
  1 5604 3804 1.00000000E-02
  1 5608 3807 1.00000000E-02
  1 5611 3838 1.00000000E-02
  1 5624 4109 1.00000000E-02
  1 5625 3565 1.00000000E-02
  1 5627 3872 1.00000000E-02
  1 5637 3768 1.00000000E-02
  1 5641 3577 1.00000000E-02
  1 5644 3881 1.00000000E-02
  1 5646 3888 1.00000000E-02
  1 5648 4338 1.00000000E-02
  1 5653 3856 1.00000000E-02
  1 5654 3835 1.00000000E-02
  1 5662 4105 1.00000000E-02
  1 5667 3856 1.00000000E-02
  1 5668 3574 1.00000000E-02
  1 5679 3700 1.00000000E-02
  1 5686 3841 1.00000000E-02
  1 5689 4106 1.00000000E-02
  1 5693 3857 1.00000000E-02
  1 5739 4341 1.00000000E-02
  1 5748 4343 1.00000000E-02
  1 5755 3894 1.00000000E-02
  1 5756 3594 1.00000000E-02
  1 5758 3713 1.00000000E-02
  1 5765 3701 1.00000000E-02
  1 5766 3765 1.00000000E-02
  1 5771 3900 1.00000000E-02
  1 5774 3643 1.00000000E-02
  1 5777 3699 1.00000000E-02
  1 5785 3721 1.00000000E-02
  1 5786 3843 1.00000000E-02
  1 5788 3612 1.00000000E-02
  1 5793 3911 1.00000000E-02
  1 5798 4109 1.00000000E-02
  1 5801 3761 1.00000000E-02
  1 5803 3726 1.00000000E-02
  1 5808 3752 1.00000000E-02
  1 5809 3914 1.00000000E-02
  1 5812 3945 1.00000000E-02
  1 5815 3763 1.00000000E-02
  1 5818 4129 1.00000000E-02
  1 5823 3744 1.00000000E-02
  1 5828 3615 1.00000000E-02
  1 5830 3916 1.00000000E-02
  1 5842 4130 1.00000000E-02
  1 5845 4344 1.00000000E-02
  1 5860 3932 1.00000000E-02
  1 5862 4129 1.00000000E-02
  1 5866 3948 1.00000000E-02
  1 5891 4351 1.00000000E-02
  1 5894 4348 1.00000000E-02
  1 5897 3958 1.00000000E-02
  1 5906 4136 1.00000000E-02
  1 5983 4138 1.00000000E-02
  1 5987 4147 1.00000000E-02
  1 6002 4360 1.00000000E-02
  1 6003 3965 1.00000000E-02
  1 6010 3974 1.00000000E-02
  1 6015 4358 1.00000000E-02
  1 6018 4146 1.00000000E-02
  1 6035 3985 1.00000000E-02
  1 6042 4006 1.00000000E-02
  1 6044 3992 1.00000000E-02
  1 6047 4162 1.00000000E-02
  1 6051 4365 1.00000000E-02
  1 6060 4179 1.00000000E-02
  1 6075 4014 1.00000000E-02
  1 6076 4002 1.00000000E-02
  1 6077 4002 1.00000000E-02
  1 6087 4179 1.00000000E-02
  1 6131 4373 1.00000000E-02
  1 6150 4361 1.00000000E-02
  1 6164 4013 1.00000000E-02
  1 6171 4366 1.00000000E-02
  1 6173 4366 1.00000000E-02
  1 6178 4370 1.00000000E-02
  1 6187 4032 1.00000000E-02
  1 6195 4082 1.00000000E-02
  1 6200 4042 1.00000000E-02
  1 6210 4366 1.00000000E-02
  1 6214 4098 1.00000000E-02
  1 6221 4082 1.00000000E-02
  1 6225 4103 1.00000000E-02
  1 6226 4378 1.00000000E-02
  1 6236 4078 1.00000000E-02
  1 6239 4376 1.00000000E-02
  1 6240 4111 1.00000000E-02
  1 6241 4101 1.00000000E-02
  1 6243 4043 1.00000000E-02
  1 6245 4430 1.00000000E-02
  1 6250 4070 1.00000000E-02
  1 6253 4049 1.00000000E-02
  1 6254 4422 1.00000000E-02
  1 6259 4424 1.00000000E-02
  1 6260 4402 1.00000000E-02
  1 6274 4111 1.00000000E-02
  1 6321 4416 1.00000000E-02
  1 6336 4410 1.00000000E-02
  1 6347 4114 1.00000000E-02
  1 6348 4390 1.00000000E-02
  1 6353 4399 1.00000000E-02
  1 6355 4058 1.00000000E-02
  1 6363 4402 1.00000000E-02
  1 6368 4109 1.00000000E-02
  1 6382 4396 1.00000000E-02
  1 6387 4394 1.00000000E-02
  1 6391 4412 1.00000000E-02
  1 6418 4416 1.00000000E-02
  1 6420 4125 1.00000000E-02
  1 6423 4145 1.00000000E-02
  1 6430 4124 1.00000000E-02
  1 6444 4144 1.00000000E-02
  1 6500 4414 1.00000000E-02
  1 6519 4135 1.00000000E-02
  1 6522 4418 1.00000000E-02
  1 6524 4166 1.00000000E-02
  1 6540 4156 1.00000000E-02
  1 6549 4422 1.00000000E-02
  1 6554 4173 1.00000000E-02
  1 6598 4172 1.00000000E-02
  1 6629 4425 1.00000000E-02
  1 6640 4434 1.00000000E-02
  1 6661 4178 1.00000000E-02
  1 6667 4432 1.00000000E-02
  1 6679 4198 1.00000000E-02
  1 6680 4434 1.00000000E-02
  1 6703 4183 1.00000000E-02
  1 6704 4190 1.00000000E-02
  1 6745 4438 1.00000000E-02
  1 6775 4448 1.00000000E-02
  1 6795 4475 1.00000000E-02
  1 6797 4475 1.00000000E-02
  1 6799 4195 1.00000000E-02
  1 6805 4454 1.00000000E-02
  1 6814 4472 1.00000000E-02
  1 6837 4188 1.00000000E-02
  1 6845 4194 1.00000000E-02
  1 6857 4207 1.00000000E-02
  1 6864 4458 1.00000000E-02
  1 6871 4476 1.00000000E-02
  1 6872 4468 1.00000000E-02
  1 6889 4456 1.00000000E-02
  1 6896 4462 1.00000000E-02
  1 6905 4464 1.00000000E-02
  1 6911 4456 1.00000000E-02
  1 6912 4197 1.00000000E-02
  1 6919 4457 1.00000000E-02
  1 6920 4468 1.00000000E-02
  1 6926 4457 1.00000000E-02
  1 6939 4475 1.00000000E-02
  1 6942 4456 1.00000000E-02
  1 6945 4455 1.00000000E-02
  1 6946 4459 1.00000000E-02
  1 6947 4471 1.00000000E-02
  1 6949 4459 1.00000000E-02
  1 6958 4457 1.00000000E-02
  1 6963 4464 1.00000000E-02
  1 6967 4466 1.00000000E-02
  1 6969 4462 1.00000000E-02
  1 6970 4202 1.00000000E-02
  1 6975 4458 1.00000000E-02
  1 6976 4460 1.00000000E-02
  1 6978 4457 1.00000000E-02
  1 6979 4459 1.00000000E-02
  1 7011 4211 1.00000000E-02
  1 7018 4459 1.00000000E-02
  1 7029 4455 1.00000000E-02
  1 7037 4477 1.00000000E-02
  1 7041 4463 1.00000000E-02
  1 7045 4454 1.00000000E-02
  1 7050 4471 1.00000000E-02
  1 7051 4473 1.00000000E-02
  1 7053 4455 1.00000000E-02
  1 7068 4461 1.00000000E-02
  1 7079 4473 1.00000000E-02
  1 7085 4464 1.00000000E-02
  1 7110 4461 1.00000000E-02
  1 7115 4468 1.00000000E-02
  1 7128 4492 1.00000000E-02
  1 7163 4460 1.00000000E-02
  1 7173 4462 1.00000000E-02
  1 7192 4474 1.00000000E-02
  1 7201 4489 1.00000000E-02
  1 7207 4483 1.00000000E-02
  1 7211 4477 1.00000000E-02
  1 7213 4472 1.00000000E-02
  1 7218 4466 1.00000000E-02
  1 7219 4474 1.00000000E-02
  1 7226 4481 1.00000000E-02
  1 7227 4474 1.00000000E-02
  1 7237 4476 1.00000000E-02
  1 7239 4480 1.00000000E-02
  1 7240 4471 1.00000000E-02
  1 7247 4482 1.00000000E-02
  1 7248 4478 1.00000000E-02
  1 7272 4466 1.00000000E-02
  1 7284 4460 1.00000000E-02
  1 7294 4478 1.00000000E-02
  1 7303 4479 1.00000000E-02
  1 7316 4468 1.00000000E-02
  1 7357 4462 1.00000000E-02
  1 7368 4466 1.00000000E-02
  1 7394 4465 1.00000000E-02
  1 7397 4473 1.00000000E-02
  1 7419 4480 1.00000000E-02
  1 7433 4480 1.00000000E-02
  1 7458 4475 1.00000000E-02
  1 7475 4473 1.00000000E-02
  1 7480 4478 1.00000000E-02
  1 7524 4491 1.00000000E-02
  1 7534 4484 1.00000000E-02
  1 7550 4477 1.00000000E-02
  1 7560 4485 1.00000000E-02
  1 7571 4484 1.00000000E-02
  1 7572 4491 1.00000000E-02
  1 7589 4490 1.00000000E-02
  1 7625 4487 1.00000000E-02
  1 7630 4486 1.00000000E-02
  1 7662 4486 1.00000000E-02
  1 7671 4487 1.00000000E-02
  1 7672 4485 1.00000000E-02
  1 7714 4490 1.00000000E-02
  1 7718 4493 1.00000000E-02
  1 7741 4489 1.00000000E-02
  1 7765 4491 1.00000000E-02
  1 7769 4483 1.00000000E-02
  1 7791 4485 1.00000000E-02
  1 7801 4480 1.00000000E-02
END period  1

