# TDIS file created on 5/22/2025 by ModelMuse version 5.3.1.0.

BEGIN OPTIONS
  TIME_UNITS seconds
END OPTIONS

BEGIN DIMENSIONS
  NPER     1
END DIMENSIONS

BEGIN PERIODDATA
    1.000000000000E+000      1  1.000000000000E+000  # perlen nstp tsmult, Stress period      1 Time = -1.000000000000E+000  -  0.000000000000E+000 
END PERIODDATA
