# Discretization File created on 5/22/2025 by ModelMuse version 5.3.1.0.
# Upper left corner: (552489.972397074, 5312989.496592)
# Lower left corner: (546753.648075191, 5296330.00109851)
# Upper right corner: (559675.913571628, 5310515.17861812)
# Lower right corner: (553939.589249745, 5293855.68312463)
# Grid angle (in degrees counterclockwise): -19
# Number of active cells = 56467.
BEGIN OPTIONS
  LENGTH_UNITS METERS
  XORIGIN  5.467536480752E+005 
  YORIGIN  5.296330001099E+006 
  ANGROT -1.900000000000E+001 
END OPTIONS

BEGIN DIMENSIONS
  NLAY     10
  NROW    174
  NCOL     54
END DIMENSIONS


BEGIN GRIDDATA
  DELR LAYERED
    INTERNAL IPRN     12 # DELR
        9.999999999977E+001   1.000000000000E+002   1.000000000002E+002   1.000000000000E+002   1.000000000000E+002   1.000000000000E+002   9.999999999977E+001   1.000000000002E+002   1.000000000000E+002   9.999999999977E+001 
        1.000000000002E+002   1.000000000000E+002   9.999999999977E+001   1.000000000000E+002   1.000000000000E+002   1.000000000002E+002   9.999999999977E+001   1.000000000000E+002   1.000000000002E+002   9.999999999977E+001 
        1.000000000000E+002   1.000000000000E+002   1.000000000000E+002   1.000000000002E+002   1.000000000000E+002   9.999999999977E+001   1.000000000002E+002   1.000000000002E+002   9.999999999977E+001   9.999999999953E+001 
        1.117734759802E+002   1.341281673771E+002   1.609537996536E+002   1.931445569897E+002   1.999999999998E+002   2.000000000002E+002   1.999999999998E+002   2.000000000005E+002   1.999999999993E+002   2.000000000005E+002 
        1.999999999998E+002   2.000000000002E+002   1.999999999998E+002   2.000000000002E+002   1.999999999998E+002   2.000000000005E+002   1.999999999993E+002   2.000000000005E+002   1.999999999998E+002   2.000000000002E+002 
        2.000000000000E+002   2.000000000000E+002   1.999999999998E+002   2.000000000002E+002 
  DELC LAYERED
    INTERNAL IPRN     12 # DELC
        1.001129475106E+002   1.001129475124E+002   1.001129475124E+002   1.001129475115E+002   1.001129475115E+002   1.001129475133E+002   1.001129475087E+002   1.001129475143E+002   1.001129475115E+002   1.001129475087E+002 
        1.001129475143E+002   1.001129475143E+002   1.001129475106E+002   1.001129475106E+002   1.001129475133E+002   1.001129475115E+002   1.001129475124E+002   1.001129475096E+002   1.001129475124E+002   1.001129475124E+002 
        1.001129475115E+002   1.001129475115E+002   1.001129475143E+002   1.001129475115E+002   1.001129475124E+002   1.001129475106E+002   1.001129475133E+002   1.001129475115E+002   1.001129475115E+002   1.001129475124E+002 
        1.001129475124E+002   1.001129475106E+002   1.001129475106E+002   1.001129475124E+002   1.001129475143E+002   1.001129475115E+002   1.001129475124E+002   1.001129475106E+002   1.001129475133E+002   1.001129475096E+002 
        1.001129475133E+002   1.001129475133E+002   1.001129475115E+002   1.001129475106E+002   1.001129475106E+002   1.001129475124E+002   1.001129475143E+002   1.001129475115E+002   1.001129475115E+002   1.001129475124E+002 
        1.001129475143E+002   1.001129475096E+002   1.001129475115E+002   1.001129475133E+002   1.001129475106E+002   1.001129475115E+002   1.001129475124E+002   1.001129475133E+002   1.001129475096E+002   1.001129475133E+002 
        1.001129475115E+002   1.001129475124E+002   1.001129475115E+002   1.001129475096E+002   1.001129475152E+002   1.001129475124E+002   1.001129475115E+002   1.001129475106E+002   1.001129475133E+002   1.001129475106E+002 
        1.001129475115E+002   1.001129475115E+002   1.001129475143E+002   1.001129475087E+002   1.001129475106E+002   1.001129475143E+002   1.001129475124E+002   1.001129475115E+002   1.001129475115E+002   1.001129475133E+002 
        1.001129475115E+002   1.001129475106E+002   1.001129475133E+002   1.001129475133E+002   1.001129475096E+002   1.001129475124E+002   1.001129475115E+002   1.001129475124E+002   1.001129475124E+002   1.001129475106E+002 
        1.001129475124E+002   1.001129475124E+002   1.001129475115E+002   1.001129475106E+002   1.001129475143E+002   1.001129475115E+002   1.001129475106E+002   1.001129475143E+002   1.001129475106E+002   1.001129475133E+002 
        1.001129475106E+002   1.001129475124E+002   1.001129475106E+002   1.001129475143E+002   1.001129475115E+002   1.001129475087E+002   1.001129475152E+002   1.001129475106E+002   1.001129475115E+002   1.001129475124E+002 
        1.001129475143E+002   1.001129475087E+002   1.001129475133E+002   1.001129475096E+002   1.001129475152E+002   1.001129475106E+002   1.001129475143E+002   1.001129475087E+002   1.001129475115E+002   1.001129475133E+002 
        1.001129475106E+002   1.001129475143E+002   1.001129475106E+002   1.001129475124E+002   1.001129475096E+002   1.001129475152E+002   1.001129475096E+002   1.001129475143E+002   1.001129475106E+002   1.001129475106E+002 
        1.001129475133E+002   1.001129475096E+002   1.001129475143E+002   1.001129475106E+002   1.001129475133E+002   1.001129475106E+002   1.001129475133E+002   1.001129475115E+002   1.001129475133E+002   1.001129475096E+002 
        1.001129475133E+002   1.001129475115E+002   1.001129475124E+002   1.001129475115E+002   1.001129475115E+002   1.001129475133E+002   1.001129475115E+002   1.001129475115E+002   1.001129475115E+002   1.001129475133E+002 
        1.001129475106E+002   1.001129475133E+002   1.001129475115E+002   1.001129475115E+002   1.001129475115E+002   1.001129475106E+002   1.001129475143E+002   1.001129475115E+002   1.001129475124E+002   1.001129475124E+002 
        1.001129475124E+002   1.001129475096E+002   1.001129475115E+002   1.001129475124E+002   1.001129475143E+002   1.001129475096E+002   1.001129475143E+002   1.001129475078E+002   1.001129475152E+002   1.001129475143E+002 
        1.118155574864E+002   1.341786651881E+002   1.610143975122E+002   1.932172748344E+002 
  TOP LAYERED IPRN    12
    CONSTANT   2.000000000000E+002  # TOP

  BOTM LAYERED IPRN    12
    CONSTANT   1.750000000000E+002  # BOTM, Upper Aquifer Layer 1

    CONSTANT   1.500000000000E+002  # BOTM, Upper Aquifer Layer 2

    CONSTANT   1.250000000000E+002  # BOTM, Upper Aquifer Layer 3

    CONSTANT   1.000000000000E+002  # BOTM, Upper Aquifer Layer 4

    CONSTANT   7.500000000000E+001  # BOTM, Upper Aquifer Layer 5

    CONSTANT   5.000000000000E+001  # BOTM, Upper Aquifer Layer 6

    CONSTANT   2.500000000000E+001  # BOTM, Upper Aquifer Layer 7

    CONSTANT   0.000000000000E+000  # BOTM, Upper Aquifer Layer 8

    CONSTANT  -2.500000000000E+001  # BOTM, Upper Aquifer Layer 9

    CONSTANT  -5.000000000000E+001  # BOTM, Upper Aquifer Layer 10

  IDOMAIN LAYERED
    INTERNAL IPRN      5 # IDOMAIN 1
           0     0     0     0     0     0     0     0     0     0
           0     0     0     0     0     0     0     0     0     0
           0     0     0     0     0     0     0     0     0     0
           0     0     0     0     0     0     0     0     0     0
           0     0     0     0     0     0     0     0     0     0
           0     0     0     0
           0     0     0     0     0     0     0     0     0     0
           0     0     0     0     0     0     0     0     0     0
           0     0     0     0     0     0     0     0     0     0
           0     0     0     0     0     0     0     0     0     0
           0     0     0     0     0     0     0     0     0     0
           0     0     0     0
           0     0     0     0     0     0     0     0     0     0
           0     0     0     0     0     0     0     0     0     0
           0     0     0     0     0     0     0     0     0     0
           0     0     0     0     0     0     0     0     0     0
           0     0     0     0     0     0     0     0     0     0
           0     0     0     0
           0     0     0     0     0     0     0     0     0     0
           0     0     0     0     0     0     0     0     0     0
           0     0     0     0     0     0     0     0     0     0
           0     0     0     0     0     0     0     0     0     0
           0     0     0     0     0     0     0     0     0     0
           0     0     0     0
           0     0     0     0     0     0     0     0     0     0
           0     0     0     0     0     0     0     0     0     0
           0     0     0     0     0     0     0     0     0     0
           0     0     0     0     0     0     0     0     0     0
           0     0     0     0     0     0     0     0     0     0
           0     0     0     0
           0     0     0     0     0     0     0     0     0     0
           0     0     0     0     0     0     0     0     0     0
           0     0     0     0     0     0     0     0     0     0
           0     0     0     0     0     0     0     0     0     0
           0     0     0     0     0     0     0     0     0     0
           0     0     0     0
           0     0     0     0     0     0     0     0     0     0
           0     0     0     0     0     0     0     0     0     0
           0     0     0     0     0     0     0     0     0     0
           0     0     0     0     0     0     0     0     0     0
           0     0     0     0     0     0     0     0     0     0
           0     0     0     0
           0     0     0     0     0     0     0     0     0     0
           0     0     0     0     0     0     0     0     0     0
           0     0     0     0     0     0     0     0     0     0
           0     0     0     0     0     0     0     0     0     0
           0     0     0     0     0     0     0     0     0     0
           0     0     0     0
           0     0     0     0     0     0     0     0     0     0
           0     0     0     0     0     0     0     0     0     0
           0     0     0     0     0     0     0     0     0     0
           0     0     0     0     0     0     0     0     0     0
           0     0     0     0     0     0     0     0     0     0
           0     0     0     0
           0     0     0     0     0     0     0     0     0     0
           0     0     0     0     0     0     0     0     0     0
           0     0     0     0     0     0     0     0     0     0
           0     0     0     0     0     0     0     0     0     0
           0     0     0     0     0     0     0     0     0     0
           0     0     0     0
           0     0     0     0     0     0     0     0     0     0
           0     0     0     0     0     0     0     0     0     0
           0     0     0     0     0     0     0     0     0     0
           0     0     0     0     0     0     0     0     0     0
           0     0     0     0     0     0     0     0     0     0
           0     0     0     0
           0     0     0     0     0     0     0     0     0     0
           0     0     0     0     0     0     0     0     0     0
           0     0     0     0     0     0     0     0     0     0
           0     0     0     0     0     0     0     0     0     0
           0     0     0     0     0     0     0     0     0     0
           0     0     0     0
           0     0     0     0     0     0     0     0     0     0
           0     0     0     0     0     0     0     0     0     0
           0     0     0     0     0     0     0     0     0     0
           0     0     0     0     0     0     0     0     0     0
           0     0     0     0     0     0     0     0     0     0
           0     0     0     0
           0     0     0     0     0     0     0     0     0     0
           0     0     0     0     0     0     0     0     0     0
           0     0     0     0     0     0     0     0     0     0
           0     0     0     0     0     0     0     0     0     0
           0     0     0     0     0     0     0     0     0     0
           0     0     0     0
           0     0     0     0     0     0     0     0     0     0
           0     0     0     0     0     0     0     0     0     0
           0     0     0     0     0     0     0     0     0     0
           0     0     0     0     0     0     0     0     0     0
           0     0     0     0     0     0     0     0     0     0
           0     0     0     0
           0     0     0     0     0     0     0     0     0     0
           0     0     0     0     0     0     0     0     0     0
           0     0     0     0     0     0     0     0     0     0
           0     0     0     0     0     0     0     0     0     0
           0     0     0     0     0     0     0     0     0     0
           0     0     0     0
           0     0     0     0     0     0     0     0     0     0
           0     0     0     0     0     0     0     0     0     0
           0     0     0     0     0     0     0     0     0     0
           0     0     0     0     0     0     0     0     0     0
           0     0     0     0     0     0     0     0     0     0
           0     0     0     0
           0     0     0     0     0     0     0     0     0     0
           0     0     0     0     0     0     0     0     0     0
           0     0     0     0     0     0     0     0     0     0
           0     0     0     0     0     0     0     0     0     0
           0     0     0     0     0     0     0     0     0     0
           0     0     0     0
           0     0     0     0     0     0     0     0     0     0
           0     0     0     0     0     0     0     0     0     0
           0     0     0     0     0     0     0     0     0     0
           0     0     0     0     0     0     0     0     0     0
           0     0     0     0     0     0     0     0     0     0
           0     0     0     0
           0     0     0     0     0     0     0     0     0     0
           0     0     0     0     0     0     0     0     0     0
           0     0     0     0     0     0     0     0     0     0
           0     0     0     0     0     0     0     0     0     0
           0     0     0     0     0     0     0     0     0     0
           0     0     0     0
           0     0     0     0     0     0     0     0     0     0
           0     0     0     0     0     0     0     0     0     0
           0     0     0     0     0     0     0     0     0     0
           0     0     0     0     0     0     0     0     0     0
           0     0     0     0     0     0     0     0     0     0
           0     0     0     0
           0     0     0     0     0     0     0     0     0     0
           0     0     0     0     0     0     0     0     0     0
           0     0     0     0     0     0     0     0     0     0
           0     0     0     0     0     0     0     0     0     0
           0     0     0     0     0     0     0     0     0     0
           0     0     0     0
           0     0     0     0     0     0     0     0     0     0
           0     0     0     0     0     0     0     0     0     0
           0     0     0     0     0     0     0     0     0     0
           0     0     0     0     0     0     0     0     0     0
           0     0     0     0     0     0     0     0     0     0
           0     0     0     0
           0     0     0     0     0     0     0     0     0     0
           0     0     0     0     0     0     0     0     0     0
           0     0     0     0     0     0     0     0     0     0
           0     0     0     0     0     0     0     0     0     0
           0     0     0     0     0     0     0     0     0     0
           0     0     0     0
           0     0     0     0     0     0     0     0     0     0
           0     0     0     0     0     0     0     0     0     0
           0     0     0     0     0     0     0     0     0     0
           0     0     0     0     0     0     0     0     0     0
           0     0     0     0     0     0     0     0     0     0
           0     0     0     0
           0     0     0     0     0     0     0     0     0     0
           0     0     0     0     0     0     0     0     0     0
           0     0     0     0     0     0     0     0     0     0
           0     0     0     0     0     0     0     0     0     0
           0     0     0     1     1     0     0     0     0     0
           0     0     0     0
           0     0     0     0     0     0     0     0     0     0
           0     0     0     0     0     0     0     0     0     0
           0     0     0     0     0     0     0     0     0     0
           0     0     0     0     0     0     0     0     0     0
           0     0     0     0     1     0     0     0     0     0
           0     0     0     0
           0     0     0     0     0     0     0     0     0     0
           0     0     0     0     0     0     0     0     0     0
           0     0     0     0     0     0     0     0     0     0
           0     0     0     0     0     0     0     0     0     0
           0     0     0     0     1     0     0     0     0     0
           0     0     0     0
           0     0     0     0     0     0     0     0     0     0
           0     0     0     0     0     0     0     0     0     0
           0     0     0     0     0     0     0     0     0     0
           0     0     0     0     0     0     0     0     0     0
           0     0     0     0     1     0     0     0     0     0
           0     0     0     0
           0     0     0     0     0     0     0     0     0     0
           0     0     0     0     0     0     0     0     0     0
           0     0     0     0     0     0     0     0     0     0
           0     0     0     0     0     0     0     0     1     0
           0     0     0     0     1     1     0     0     0     0
           0     0     0     0
           0     0     0     0     0     0     0     0     0     0
           0     0     0     0     0     0     0     0     0     0
           0     0     0     0     0     0     0     0     0     0
           0     0     0     0     0     0     0     0     1     1
           0     0     0     0     0     1     0     0     0     0
           0     0     0     0
           0     0     0     0     0     0     0     0     0     0
           0     0     0     0     0     0     0     0     0     0
           0     0     0     0     0     0     0     0     0     0
           0     0     0     0     0     0     0     0     1     1
           0     0     1     0     0     0     0     0     0     0
           0     0     0     0
           0     0     0     0     0     0     0     0     0     0
           0     0     0     0     0     0     0     0     0     0
           0     0     0     0     0     0     0     0     0     0
           0     0     0     0     0     0     0     0     1     1
           1     1     1     0     0     0     0     0     0     0
           0     0     0     0
           0     0     0     0     0     0     0     0     0     0
           0     0     0     0     0     0     0     0     0     0
           0     0     0     0     0     0     0     0     0     0
           0     0     0     0     0     0     0     0     1     1
           1     1     1     1     0     0     0     0     0     0
           0     0     0     0
           0     0     0     0     0     0     0     0     0     0
           0     0     0     0     0     0     0     0     0     0
           0     0     0     0     0     0     0     0     0     0
           0     0     0     0     0     0     0     0     0     1
           1     1     1     1     0     0     0     0     0     0
           0     0     0     0
           0     0     0     0     0     0     0     0     0     0
           0     0     0     0     0     0     0     0     0     0
           0     0     0     0     0     0     0     0     0     0
           0     0     0     0     0     0     0     0     0     1
           1     1     1     1     0     0     0     0     0     0
           0     0     0     0
           0     0     0     0     0     0     0     0     0     0
           0     0     0     0     0     0     0     0     0     0
           0     0     0     0     0     0     0     0     0     0
           0     0     0     0     0     0     0     0     0     1
           1     1     1     1     1     0     0     0     0     0
           0     0     0     0
           0     0     0     0     0     0     0     0     0     0
           0     0     0     0     0     0     0     0     0     0
           0     0     0     0     0     0     0     0     0     0
           0     0     0     0     0     0     0     0     0     1
           1     1     1     1     1     0     0     0     0     0
           0     0     0     0
           0     0     0     0     0     0     0     0     0     0
           0     0     0     0     0     0     0     0     0     0
           0     0     0     0     0     0     0     0     0     0
           0     0     0     0     0     0     0     0     0     0
           1     1     1     1     1     0     0     0     0     0
           0     0     0     0
           0     0     0     0     0     0     0     0     0     0
           0     0     0     0     0     0     0     0     0     0
           0     0     0     0     0     0     0     0     0     0
           0     0     0     0     0     0     0     0     0     0
           1     1     1     1     1     0     0     0     0     0
           0     0     0     0
           0     0     0     0     0     0     0     0     0     0
           0     0     0     0     0     0     0     0     0     0
           0     0     0     0     0     0     0     0     0     0
           0     0     0     0     0     0     0     0     0     0
           1     1     1     1     1     0     0     0     0     0
           0     0     0     0
           0     0     0     0     0     0     0     0     0     0
           0     0     0     0     0     0     0     0     0     0
           0     0     0     0     0     0     0     0     0     0
           0     0     0     0     0     0     0     0     0     0
           1     1     1     1     1     1     0     0     0     0
           0     0     0     0
           0     0     0     0     0     0     0     0     0     0
           0     0     0     0     0     0     0     0     0     0
           0     0     0     0     0     0     0     0     0     0
           0     0     0     0     0     0     0     0     0     0
           0     1     1     1     1     1     0     0     0     0
           0     0     0     0
           0     0     0     0     0     0     0     0     0     0
           0     0     0     0     0     0     0     0     0     0
           0     0     0     0     0     0     0     0     0     0
           0     0     0     0     0     0     0     0     0     0
           0     1     1     1     1     1     0     0     0     0
           0     0     0     0
           0     0     0     0     0     0     0     0     0     0
           0     0     0     0     0     0     0     0     0     0
           0     0     0     0     0     0     0     0     0     0
           0     0     0     0     0     0     0     0     0     0
           0     1     1     1     1     0     0     0     0     0
           0     0     0     0
           0     0     0     0     0     0     0     0     0     0
           0     0     0     0     0     0     0     0     0     0
           0     0     0     0     0     0     0     0     0     0
           0     0     0     0     0     0     0     0     0     0
           0     1     0     1     1     0     0     0     0     0
           0     0     0     0
           0     0     0     0     0     0     0     0     0     0
           0     0     0     0     0     0     0     0     0     0
           0     0     0     0     0     0     0     0     0     0
           0     0     0     0     0     0     0     0     0     0
           0     0     1     1     0     0     0     0     0     0
           0     0     0     0
           0     0     0     0     0     0     0     0     0     0
           0     0     0     0     0     0     0     0     0     0
           0     0     0     0     0     0     0     0     0     0
           0     0     0     0     0     0     0     0     0     0
           0     0     0     1     1     0     0     0     0     0
           0     0     0     0
           0     0     0     0     0     0     0     0     0     0
           0     0     0     0     0     0     0     0     0     0
           0     0     0     0     0     0     0     0     0     0
           0     0     0     0     0     0     0     0     0     0
           0     0     0     1     0     0     0     0     0     0
           0     0     0     0
           0     0     0     0     0     0     0     0     0     0
           0     0     0     0     0     0     0     0     0     0
           0     0     0     0     0     0     0     0     0     0
           0     0     0     0     0     0     0     0     0     0
           0     0     0     0     0     0     0     0     0     0
           0     0     0     0
           0     0     0     0     0     0     0     0     0     0
           0     0     0     0     0     0     0     0     0     0
           0     0     0     0     0     0     0     0     0     0
           0     0     0     0     0     0     0     0     0     0
           0     0     0     0     0     0     0     0     0     0
           0     0     0     0
           0     0     0     0     0     0     0     0     0     0
           0     0     0     0     0     0     0     0     0     0
           0     0     0     0     0     0     0     0     0     0
           0     0     0     0     0     0     0     0     0     0
           0     0     0     0     0     0     0     0     0     0
           0     0     0     0
           0     0     0     0     0     0     0     0     0     0
           0     0     0     0     0     0     0     0     0     0
           0     0     0     0     0     0     0     0     0     0
           0     0     0     0     0     0     0     0     0     0
           0     0     0     0     0     0     0     0     0     0
           0     0     0     0
           0     0     0     0     0     0     0     0     0     0
           0     0     0     0     0     0     0     0     0     0
           0     0     0     0     1     0     0     0     0     0
           0     0     0     0     0     0     0     0     0     0
           0     0     0     0     0     0     0     0     0     0
           0     0     0     0
           0     0     0     0     0     0     0     0     0     0
           0     0     0     0     0     0     0     0     0     0
           0     0     0     1     0     0     0     0     0     0
           0     0     0     0     0     0     0     0     0     0
           0     0     0     0     0     0     0     0     0     0
           0     0     0     0
           0     0     0     0     0     0     0     0     0     0
           0     0     0     0     0     0     0     0     0     0
           0     0     0     0     0     0     0     0     0     0
           0     0     0     1     1     0     0     0     0     0
           0     0     0     0     0     0     0     0     0     0
           0     0     0     0
           0     0     0     0     0     0     0     0     0     0
           0     0     0     0     0     0     0     0     0     0
           0     0     0     0     0     0     0     0     0     0
           0     0     0     0     1     0     0     0     0     0
           0     0     0     0     0     0     0     0     0     0
           0     0     0     0
           0     0     0     0     0     0     0     0     0     0
           0     0     0     0     0     0     0     0     0     0
           0     0     0     0     0     0     0     0     0     0
           0     0     0     1     1     1     0     0     0     0
           0     0     0     0     0     0     0     0     0     0
           0     0     0     0
           0     0     0     0     0     0     0     0     0     0
           0     0     0     0     0     0     0     0     0     0
           0     0     0     0     0     0     0     0     0     0
           0     0     0     1     1     1     1     0     0     0
           0     0     0     0     0     0     0     0     0     0
           0     0     0     0
           0     0     0     0     0     0     0     0     0     0
           0     0     0     0     0     0     0     0     0     0
           0     0     0     0     0     0     0     0     0     0
           0     0     0     1     1     1     1     0     0     0
           0     0     0     0     0     0     0     0     0     0
           0     0     0     0
           0     0     0     0     0     0     0     0     0     0
           0     0     0     0     0     0     0     0     0     0
           0     0     0     0     0     0     0     0     0     0
           0     0     0     1     1     1     1     1     0     0
           0     0     0     0     0     0     0     0     0     0
           0     0     0     0
           0     0     0     0     0     0     0     0     0     0
           0     0     0     0     0     0     0     0     0     0
           0     0     0     0     0     0     0     0     0     0
           0     0     0     1     1     1     1     1     0     0
           0     0     0     0     0     0     0     0     0     0
           0     0     0     0
           0     0     0     0     0     0     0     0     0     0
           0     0     0     0     0     0     0     0     0     0
           0     0     0     0     0     0     0     0     0     0
           0     0     0     1     1     1     1     1     0     0
           0     0     0     0     0     0     0     0     0     0
           0     0     0     0
           0     0     0     0     0     0     0     0     0     0
           0     0     0     0     0     0     0     0     0     0
           0     0     0     0     0     0     0     0     0     0