# DRN: Drain package file created on 5/22/2025 by ModelMuse version 5.3.1.0.
BEGIN OPTIONS
    AUXILIARY IFACE DDRN
    BOUNDNAMES
    PRINT_INPUT
    SAVE_FLOWS
    AUXDEPTHNAME DDRN
END OPTIONS

BEGIN DIMENSIONS
  MAXBOUND   940
END DIMENSIONS

BEGIN PERIOD      1
     5    70     9  8.198662567139E+001   1.000000000000E-003      0  0.000000000000E+000  'Streams_Aoi_Drn_v1a_1'  # Data Set 6: Layer Row Column Elevation Cond IFACE DDRN boundname
     6    69     9  6.665884399414E+001   1.000000000000E-003      0  0.000000000000E+000  'Streams_Aoi_Drn_v1a_1'  # Data Set 6: Layer Row Column Elevation Cond IFACE DDRN boundname
     7    68     9  3.394955825806E+001   1.000000000000E-003      0  0.000000000000E+000  'Streams_Aoi_Drn_v1a_1'  # Data Set 6: Layer Row Column Elevation Cond IFACE DDRN boundname
     3    92    35  1.467965393066E+002   1.000000000000E-003      0  0.000000000000E+000  'Streams_Aoi_Drn_v1a_1'  # Data Set 6: Layer Row Column Elevation Cond IFACE DDRN boundname
     3    90    35  1.452184753418E+002   1.000000000000E-003      0  0.000000000000E+000  'Streams_Aoi_Drn_v1a_1'  # Data Set 6: Layer Row Column Elevation Cond IFACE DDRN boundname
     3    91    35  1.431676025391E+002   1.000000000000E-003      0  0.000000000000E+000  'Streams_Aoi_Drn_v1a_1'  # Data Set 6: Layer Row Column Elevation Cond IFACE DDRN boundname
     7   123    23  3.333343887329E+001   1.000000000000E-003      0  0.000000000000E+000  'Streams_Aoi_Drn_v1a_1'  # Data Set 6: Layer Row Column Elevation Cond IFACE DDRN boundname
     7   123    22  4.170598220825E+001   1.000000000000E-003      0  0.000000000000E+000  'Streams_Aoi_Drn_v1a_1'  # Data Set 6: Layer Row Column Elevation Cond IFACE DDRN boundname
     6   123    21  6.072662353516E+001   1.000000000000E-003      0  0.000000000000E+000  'Streams_Aoi_Drn_v1a_1'  # Data Set 6: Layer Row Column Elevation Cond IFACE DDRN boundname
     3   124    38  1.393650665283E+002   1.000000000000E-003      0  0.000000000000E+000  'Streams_Aoi_Drn_v1a_1'  # Data Set 6: Layer Row Column Elevation Cond IFACE DDRN boundname
     3   125    38  1.350370330811E+002   1.000000000000E-003      0  0.000000000000E+000  'Streams_Aoi_Drn_v1a_1'  # Data Set 6: Layer Row Column Elevation Cond IFACE DDRN boundname
     3   125    37  1.363601837158E+002   1.000000000000E-003      0  0.000000000000E+000  'Streams_Aoi_Drn_v1a_1'  # Data Set 6: Layer Row Column Elevation Cond IFACE DDRN boundname
     3    93    20  1.361274261475E+002   1.000000000000E-003      0  0.000000000000E+000  'Streams_Aoi_Drn_v1a_1'  # Data Set 6: Layer Row Column Elevation Cond IFACE DDRN boundname
     3    93    21  1.370771179199E+002   1.000000000000E-003      0  0.000000000000E+000  'Streams_Aoi_Drn_v1a_1'  # Data Set 6: Layer Row Column Elevation Cond IFACE DDRN boundname
     4    94    21  1.241126327515E+002   1.000000000000E-003      0  0.000000000000E+000  'Streams_Aoi_Drn_v1a_1'  # Data Set 6: Layer Row Column Elevation Cond IFACE DDRN boundname
     4    95    21  1.105655364990E+002   1.000000000000E-003      0  0.000000000000E+000  'Streams_Aoi_Drn_v1a_1'  # Data Set 6: Layer Row Column Elevation Cond IFACE DDRN boundname
     5    97    21  8.760502624512E+001   1.000000000000E-003      0  0.000000000000E+000  'Streams_Aoi_Drn_v1a_1'  # Data Set 6: Layer Row Column Elevation Cond IFACE DDRN boundname
     6   100    15  6.432527160645E+001   1.000000000000E-003      0  0.000000000000E+000  'Streams_Aoi_Drn_v1a_1'  # Data Set 6: Layer Row Column Elevation Cond IFACE DDRN boundname
     7   100    13  4.643212509155E+001   1.000000000000E-003      0  0.000000000000E+000  'Streams_Aoi_Drn_v1a_1'  # Data Set 6: Layer Row Column Elevation Cond IFACE DDRN boundname
     7   100    12  4.093526077271E+001   1.000000000000E-003      0  0.000000000000E+000  'Streams_Aoi_Drn_v1a_1'  # Data Set 6: Layer Row Column Elevation Cond IFACE DDRN boundname
     7    99    11  3.673382949829E+001   1.000000000000E-003      0  0.000000000000E+000  'Streams_Aoi_Drn_v1a_1'  # Data Set 6: Layer Row Column Elevation Cond IFACE DDRN boundname
     7   100    11  3.999497985840E+001   1.000000000000E-003      0  0.000000000000E+000  'Streams_Aoi_Drn_v1a_1'  # Data Set 6: Layer Row Column Elevation Cond IFACE DDRN boundname
     8   100    10  1.580717468262E+001   1.000000000000E-003      0  0.000000000000E+000  'Streams_Aoi_Drn_v1a_1'  # Data Set 6: Layer Row Column Elevation Cond IFACE DDRN boundname
     7   101    10  4.262390518188E+001   1.000000000000E-003      0  0.000000000000E+000  'Streams_Aoi_Drn_v1a_1'  # Data Set 6: Layer Row Column Elevation Cond IFACE DDRN boundname
     8   101     9  1.873181724548E+001   1.000000000000E-003      0  0.000000000000E+000  'Streams_Aoi_Drn_v1a_1'  # Data Set 6: Layer Row Column Elevation Cond IFACE DDRN boundname
     8   102     8  8.735432624817E+000   1.000000000000E-003      0  0.000000000000E+000  'Streams_Aoi_Drn_v1a_1'  # Data Set 6: Layer Row Column Elevation Cond IFACE DDRN boundname
     3    81    23  1.493270263672E+002   1.000000000000E-003      0  0.000000000000E+000  'Streams_Aoi_Drn_v1a_1'  # Data Set 6: Layer Row Column Elevation Cond IFACE DDRN boundname
     3    81    22  1.489000701904E+002   1.000000000000E-003      0  0.000000000000E+000  'Streams_Aoi_Drn_v1a_1'  # Data Set 6: Layer Row Column Elevation Cond IFACE DDRN boundname
     3    69    18  1.385019836426E+002   1.000000000000E-003      0  0.000000000000E+000  'Streams_Aoi_Drn_v1a_1'  # Data Set 6: Layer Row Column Elevation Cond IFACE DDRN boundname
     3    69    17  1.405368957520E+002   1.000000000000E-003      0  0.000000000000E+000  'Streams_Aoi_Drn_v1a_1'  # Data Set 6: Layer Row Column Elevation Cond IFACE DDRN boundname
     4    68    17  1.176450042725E+002   1.000000000000E-003      0  0.000000000000E+000  'Streams_Aoi_Drn_v1a_1'  # Data Set 6: Layer Row Column Elevation Cond IFACE DDRN boundname
     5    68    16  9.358415985107E+001   1.000000000000E-003      0  0.000000000000E+000  'Streams_Aoi_Drn_v1a_1'  # Data Set 6: Layer Row Column Elevation Cond IFACE DDRN boundname
     4    69    15  1.147019424438E+002   1.000000000000E-003      0  0.000000000000E+000  'Streams_Aoi_Drn_v1a_1'  # Data Set 6: Layer Row Column Elevation Cond IFACE DDRN boundname
     5    69    14  9.367870330811E+001   1.000000000000E-003      0  0.000000000000E+000  'Streams_Aoi_Drn_v1a_1'  # Data Set 6: Layer Row Column Elevation Cond IFACE DDRN boundname
     5    69    13  8.903573608398E+001   1.000000000000E-003      0  0.000000000000E+000  'Streams_Aoi_Drn_v1a_1'  # Data Set 6: Layer Row Column Elevation Cond IFACE DDRN boundname
     5    68    13  8.655680084229E+001   1.000000000000E-003      0  0.000000000000E+000  'Streams_Aoi_Drn_v1a_1'  # Data Set 6: Layer Row Column Elevation Cond IFACE DDRN boundname
     7    68    11  4.325841522217E+001   1.000000000000E-003      0  0.000000000000E+000  'Streams_Aoi_Drn_v1a_1'  # Data Set 6: Layer Row Column Elevation Cond IFACE DDRN boundname
     2    32    23  1.618489227295E+002   1.000000000000E-003      0  0.000000000000E+000  'Streams_Aoi_Drn_v1a_1'  # Data Set 6: Layer Row Column Elevation Cond IFACE DDRN boundname
     2    32    22  1.597429199219E+002   1.000000000000E-003      0  0.000000000000E+000  'Streams_Aoi_Drn_v1a_1'  # Data Set 6: Layer Row Column Elevation Cond IFACE DDRN boundname
     3    32    21  1.453388977051E+002   1.000000000000E-003      0  0.000000000000E+000  'Streams_Aoi_Drn_v1a_1'  # Data Set 6: Layer Row Column Elevation Cond IFACE DDRN boundname
     3    32    20  1.335241546631E+002   1.000000000000E-003      0  0.000000000000E+000  'Streams_Aoi_Drn_v1a_1'  # Data Set 6: Layer Row Column Elevation Cond IFACE DDRN boundname
     4    32    19  1.145922698975E+002   1.000000000000E-003      0  0.000000000000E+000  'Streams_Aoi_Drn_v1a_1'  # Data Set 6: Layer Row Column Elevation Cond IFACE DDRN boundname
     4    32    18  1.156965942383E+002   1.000000000000E-003      0  0.000000000000E+000  'Streams_Aoi_Drn_v1a_1'  # Data Set 6: Layer Row Column Elevation Cond IFACE DDRN boundname
     8    15    13  1.104033184052E+001   1.000000000000E-003      0  0.000000000000E+000  'Streams_Aoi_Drn_v1a_1'  # Data Set 6: Layer Row Column Elevation Cond IFACE DDRN boundname
     3   106    30  1.426415710449E+002   1.000000000000E-003      0  0.000000000000E+000  'Streams_Aoi_Drn_v1a_1'  # Data Set 6: Layer Row Column Elevation Cond IFACE DDRN boundname
     3   106    29  1.417507934570E+002   1.000000000000E-003      0  0.000000000000E+000  'Streams_Aoi_Drn_v1a_1'  # Data Set 6: Layer Row Column Elevation Cond IFACE DDRN boundname
     3   106    28  1.393860931396E+002   1.000000000000E-003      0  0.000000000000E+000  'Streams_Aoi_Drn_v1a_1'  # Data Set 6: Layer Row Column Elevation Cond IFACE DDRN boundname
     3   107    28  1.395417938232E+002   1.000000000000E-003      0  0.000000000000E+000  'Streams_Aoi_Drn_v1a_1'  # Data Set 6: Layer Row Column Elevation Cond IFACE DDRN boundname
     3   107    27  1.349989013672E+002   1.000000000000E-003      0  0.000000000000E+000  'Streams_Aoi_Drn_v1a_1'  # Data Set 6: Layer Row Column Elevation Cond IFACE DDRN boundname
     4   108    25  1.222050399780E+002   1.000000000000E-003      0  0.000000000000E+000  'Streams_Aoi_Drn_v1a_1'  # Data Set 6: Layer Row Column Elevation Cond IFACE DDRN boundname
     4   109    25  1.227143554688E+002   1.000000000000E-003      0  0.000000000000E+000  'Streams_Aoi_Drn_v1a_1'  # Data Set 6: Layer Row Column Elevation Cond IFACE DDRN boundname
     4   110    25  1.174845046997E+002   1.000000000000E-003      0  0.000000000000E+000  'Streams_Aoi_Drn_v1a_1'  # Data Set 6: Layer Row Column Elevation Cond IFACE DDRN boundname
     5    20    26  9.541009521484E+001   1.000000000000E-003      0  0.000000000000E+000  'Streams_Aoi_Drn_v1a_1'  # Data Set 6: Layer Row Column Elevation Cond IFACE DDRN boundname
     5    19    26  9.610503387451E+001   1.000000000000E-003      0  0.000000000000E+000  'Streams_Aoi_Drn_v1a_1'  # Data Set 6: Layer Row Column Elevation Cond IFACE DDRN boundname
     6    19    25  7.327568817139E+001   1.000000000000E-003      0  0.000000000000E+000  'Streams_Aoi_Drn_v1a_1'  # Data Set 6: Layer Row Column Elevation Cond IFACE DDRN boundname
     6    18    25  7.256508636475E+001   1.000000000000E-003      0  0.000000000000E+000  'Streams_Aoi_Drn_v1a_1'  # Data Set 6: Layer Row Column Elevation Cond IFACE DDRN boundname
     2    29    30  1.580915832520E+002   1.000000000000E-003      0  0.000000000000E+000  'Streams_Aoi_Drn_v1a_1'  # Data Set 6: Layer Row Column Elevation Cond IFACE DDRN boundname
     3    28    30  1.437146759033E+002   1.000000000000E-003      0  0.000000000000E+000  'Streams_Aoi_Drn_v1a_1'  # Data Set 6: Layer Row Column Elevation Cond IFACE DDRN boundname
     3    27    30  1.435834655762E+002   1.000000000000E-003      0  0.000000000000E+000  'Streams_Aoi_Drn_v1a_1'  # Data Set 6: Layer Row Column Elevation Cond IFACE DDRN boundname
     3    25    28  1.367999267578E+002   1.000000000000E-003      0  0.000000000000E+000  'Streams_Aoi_Drn_v1a_1'  # Data Set 6: Layer Row Column Elevation Cond IFACE DDRN boundname
     4    24    28  1.083005371094E+002   1.000000000000E-003      0  0.000000000000E+000  'Streams_Aoi_Drn_v1a_1'  # Data Set 6: Layer Row Column Elevation Cond IFACE DDRN boundname
     5    24    27  9.874893188477E+001   1.000000000000E-003      0  0.000000000000E+000  'Streams_Aoi_Drn_v1a_1'  # Data Set 6: Layer Row Column Elevation Cond IFACE DDRN boundname
     4    25    27  1.118989181519E+002   1.000000000000E-003      0  0.000000000000E+000  'Streams_Aoi_Drn_v1a_1'  # Data Set 6: Layer Row Column Elevation Cond IFACE DDRN boundname
     5    25    26  9.779195404053E+001   1.000000000000E-003      0  0.000000000000E+000  'Streams_Aoi_Drn_v1a_1'  # Data Set 6: Layer Row Column Elevation Cond IFACE DDRN boundname
     4    46    11  1.172056350708E+002   1.000000000000E-003      0  0.000000000000E+000  'Streams_Aoi_Drn_v1a_1'  # Data Set 6: Layer Row Column Elevation Cond IFACE DDRN boundname
     4    46    10  1.119840774536E+002   1.000000000000E-003      0  0.000000000000E+000  'Streams_Aoi_Drn_v1a_1'  # Data Set 6: Layer Row Column Elevation Cond IFACE DDRN boundname
     5    45    10  8.309031677246E+001   1.000000000000E-003      0  0.000000000000E+000  'Streams_Aoi_Drn_v1a_1'  # Data Set 6: Layer Row Column Elevation Cond IFACE DDRN boundname
     6    44    10  6.778901672363E+001   1.000000000000E-003      0  0.000000000000E+000  'Streams_Aoi_Drn_v1a_1'  # Data Set 6: Layer Row Column Elevation Cond IFACE DDRN boundname
     5    44     9  8.445639038086E+001   1.000000000000E-003      0  0.000000000000E+000  'Streams_Aoi_Drn_v1a_1'  # Data Set 6: Layer Row Column Elevation Cond IFACE DDRN boundname
     3    16    28  1.334776916504E+002   1.000000000000E-003      0  0.000000000000E+000  'Streams_Aoi_Drn_v1a_1'  # Data Set 6: Layer Row Column Elevation Cond IFACE DDRN boundname
     4    16    27  1.184002227783E+002   1.000000000000E-003      0  0.000000000000E+000  'Streams_Aoi_Drn_v1a_1'  # Data Set 6: Layer Row Column Elevation Cond IFACE DDRN boundname
     5    17    26  9.268606567383E+001   1.000000000000E-003      0  0.000000000000E+000  'Streams_Aoi_Drn_v1a_1'  # Data Set 6: Layer Row Column Elevation Cond IFACE DDRN boundname
     6    16    25  7.453833770752E+001   1.000000000000E-003      0  0.000000000000E+000  'Streams_Aoi_Drn_v1a_1'  # Data Set 6: Layer Row Column Elevation Cond IFACE DDRN boundname
     3    18    28  1.354320983887E+002   1.000000000000E-003      0  0.000000000000E+000  'Streams_Aoi_Drn_v1a_1'  # Data Set 6: Layer Row Column Elevation Cond IFACE DDRN boundname
     4    18    26  1.197078781128E+002   1.000000000000E-003      0  0.000000000000E+000  'Streams_Aoi_Drn_v1a_1'  # Data Set 6: Layer Row Column Elevation Cond IFACE DDRN boundname
     6    18    25  7.256508636475E+001   1.000000000000E-003      0  0.000000000000E+000  'Streams_Aoi_Drn_v1a_1'  # Data Set 6: Layer Row Column Elevation Cond IFACE DDRN boundname
     4   110    25  1.174845046997E+002   1.000000000000E-003      0  0.000000000000E+000  'Streams_Aoi_Drn_v1a_1'  # Data Set 6: Layer Row Column Elevation Cond IFACE DDRN boundname
     4   111    25  1.150205383301E+002   1.000000000000E-003      0  0.000000000000E+000  'Streams_Aoi_Drn_v1a_1'  # Data Set 6: Layer Row Column Elevation Cond IFACE DDRN boundname
     4   111    24  1.071651840210E+002   1.000000000000E-003      0  0.000000000000E+000  'Streams_Aoi_Drn_v1a_1'  # Data Set 6: Layer Row Column Elevation Cond IFACE DDRN boundname
     4   111    23  1.065328750610E+002   1.000000000000E-003      0  0.000000000000E+000  'Streams_Aoi_Drn_v1a_1'  # Data Set 6: Layer Row Column Elevation Cond IFACE DDRN boundname
     4   112    23  1.193985061646E+002   1.000000000000E-003      0  0.000000000000E+000  'Streams_Aoi_Drn_v1a_1'  # Data Set 6: Layer Row Column Elevation Cond IFACE DDRN boundname
     4   127    36  1.198376922607E+002   1.000000000000E-003      0  0.000000000000E+000  'Streams_Aoi_Drn_v1a_1'  # Data Set 6: Layer Row Column Elevation Cond IFACE DDRN boundname
     4   125    35  1.185008087158E+002   1.000000000000E-003      0  0.000000000000E+000  'Streams_Aoi_Drn_v1a_1'  # Data Set 6: Layer Row Column Elevation Cond IFACE DDRN boundname
     5   126    34  9.798196411133E+001   1.000000000000E-003      0  0.000000000000E+000  'Streams_Aoi_Drn_v1a_1'  # Data Set 6: Layer Row Column Elevation Cond IFACE DDRN boundname
     4   126    33  1.220614776611E+002   1.000000000000E-003      0  0.000000000000E+000  'Streams_Aoi_Drn_v1a_1'  # Data Set 6: Layer Row Column Elevation Cond IFACE DDRN boundname
     5   126    32  9.270703125000E+001   1.000000000000E-003      0  0.000000000000E+000  'Streams_Aoi_Drn_v1a_1'  # Data Set 6: Layer Row Column Elevation Cond IFACE DDRN boundname
     5   126    31  8.225467681885E+001   1.000000000000E-003      0  0.000000000000E+000  'Streams_Aoi_Drn_v1a_1'  # Data Set 6: Layer Row Column Elevation Cond IFACE DDRN boundname
     4   127    31  1.160892028809E+002   1.000000000000E-003      0  0.000000000000E+000  'Streams_Aoi_Drn_v1a_1'  # Data Set 6: Layer Row Column Elevation Cond IFACE DDRN boundname
     5   127    30  8.603178405762E+001   1.000000000000E-003      0  0.000000000000E+000  'Streams_Aoi_Drn_v1a_1'  # Data Set 6: Layer Row Column Elevation Cond IFACE DDRN boundname
     2    23    32  1.567559204102E+002   1.000000000000E-003      0  0.000000000000E+000  'Streams_Aoi_Drn_v1a_1'  # Data Set 6: Layer Row Column Elevation Cond IFACE DDRN boundname
     3    22    32  1.494471130371E+002   1.000000000000E-003      0  0.000000000000E+000  'Streams_Aoi_Drn_v1a_1'  # Data Set 6: Layer Row Column Elevation Cond IFACE DDRN boundname
     3    20    32  1.455952758789E+002   1.000000000000E-003      0  0.000000000000E+000  'Streams_Aoi_Drn_v1a_1'  # Data Set 6: Layer Row Column Elevation Cond IFACE DDRN boundname
     3    19    31  1.394393615723E+002   1.000000000000E-003      0  0.000000000000E+000  'Streams_Aoi_Drn_v1a_1'  # Data Set 6: Layer Row Column Elevation Cond IFACE DDRN boundname
     3    18    31  1.404382171631E+002   1.000000000000E-003      0  0.000000000000E+000  'Streams_Aoi_Drn_v1a_1'  # Data Set 6: Layer Row Column Elevation Cond IFACE DDRN boundname
     3    17    31  1.353327789307E+002   1.000000000000E-003      0  0.000000000000E+000  'Streams_Aoi_Drn_v1a_1'  # Data Set 6: Layer Row Column Elevation Cond IFACE DDRN boundname
     3    16    31  1.350413513184E+002   1.000000000000E-003      0  0.000000000000E+000  'Streams_Aoi_Drn_v1a_1'  # Data Set 6: Layer Row Column Elevation Cond IFACE DDRN boundname
     4    15    30  1.216166458130E+002   1.000000000000E-003      0  0.000000000000E+000  'Streams_Aoi_Drn_v1a_1'  # Data Set 6: Layer Row Column Elevation Cond IFACE DDRN boundname
     4    15    27  1.240497970581E+002   1.000000000000E-003      0  0.000000000000E+000  'Streams_Aoi_Drn_v1a_1'  # Data Set 6: Layer Row Column Elevation Cond IFACE DDRN boundname
     4    14    27  1.128992233276E+002   1.000000000000E-003      0  0.000000000000E+000  'Streams_Aoi_Drn_v1a_1'  # Data Set 6: Layer Row Column Elevation Cond IFACE DDRN boundname
     4    15    26  1.231810836792E+002   1.000000000000E-003      0  0.000000000000E+000  'Streams_Aoi_Drn_v1a_1'  # Data Set 6: Layer Row Column Elevation Cond IFACE DDRN boundname
     5    15    25  9.273009490967E+001   1.000000000000E-003      0  0.000000000000E+000  'Streams_Aoi_Drn_v1a_1'  # Data Set 6: Layer Row Column Elevation Cond IFACE DDRN boundname
     6    14    25  6.709284973145E+001   1.000000000000E-003      0  0.000000000000E+000  'Streams_Aoi_Drn_v1a_1'  # Data Set 6: Layer Row Column Elevation Cond IFACE DDRN boundname
     4   112    23  1.193985061646E+002   1.000000000000E-003      0  0.000000000000E+000  'Streams_Aoi_Drn_v1a_1'  # Data Set 6: Layer Row Column Elevation Cond IFACE DDRN boundname
     4   112    22  1.131440429688E+002   1.000000000000E-003      0  0.000000000000E+000  'Streams_Aoi_Drn_v1a_1'  # Data Set 6: Layer Row Column Elevation Cond IFACE DDRN boundname
     5   112    21  8.331821441650E+001   1.000000000000E-003      0  0.000000000000E+000  'Streams_Aoi_Drn_v1a_1'  # Data Set 6: Layer Row Column Elevation Cond IFACE DDRN boundname
     4   113    21  1.081188812256E+002   1.000000000000E-003      0  0.000000000000E+000  'Streams_Aoi_Drn_v1a_1'  # Data Set 6: Layer Row Column Elevation Cond IFACE DDRN boundname
     6   113    20  5.705280685425E+001   1.000000000000E-003      0  0.000000000000E+000  'Streams_Aoi_Drn_v1a_1'  # Data Set 6: Layer Row Column Elevation Cond IFACE DDRN boundname
     7   114    19  4.729185867310E+001   1.000000000000E-003      0  0.000000000000E+000  'Streams_Aoi_Drn_v1a_1'  # Data Set 6: Layer Row Column Elevation Cond IFACE DDRN boundname
     5   115    19  8.551287078857E+001   1.000000000000E-003      0  0.000000000000E+000  'Streams_Aoi_Drn_v1a_1'  # Data Set 6: Layer Row Column Elevation Cond IFACE DDRN boundname
     6   115    18  6.297340774536E+001   1.000000000000E-003      0  0.000000000000E+000  'Streams_Aoi_Drn_v1a_1'  # Data Set 6: Layer Row Column Elevation Cond IFACE DDRN boundname
     7   115    17  3.346627426147E+001   1.000000000000E-003      0  0.000000000000E+000  'Streams_Aoi_Drn_v1a_1'  # Data Set 6: Layer Row Column Elevation Cond IFACE DDRN boundname
     6   116    17  6.708444213867E+001   1.000000000000E-003      0  0.000000000000E+000  'Streams_Aoi_Drn_v1a_1'  # Data Set 6: Layer Row Column Elevation Cond IFACE DDRN boundname
     7   116    16  3.925320053101E+001   1.000000000000E-003      0  0.000000000000E+000  'Streams_Aoi_Drn_v1a_1'  # Data Set 6: Layer Row Column Elevation Cond IFACE DDRN boundname
     8   116    15  2.196010017395E+001   1.000000000000E-003      0  0.000000000000E+000  'Streams_Aoi_Drn_v1a_1'  # Data Set 6: Layer Row Column Elevation Cond IFACE DDRN boundname
     7   117    15  3.838201141357E+001   1.000000000000E-003      0  0.000000000000E+000  'Streams_Aoi_Drn_v1a_1'  # Data Set 6: Layer Row Column Elevation Cond IFACE DDRN boundname
     8   117    14  6.919845581055E+000   1.000000000000E-003      0  0.000000000000E+000  'Streams_Aoi_Drn_v1a_1'  # Data Set 6: Layer Row Column Elevation Cond IFACE DDRN boundname
     8   117    13  7.326238155365E+000   1.000000000000E-003      0  0.000000000000E+000  'Streams_Aoi_Drn_v1a_1'  # Data Set 6: Layer Row Column Elevation Cond IFACE DDRN boundname
     6   151    21  7.496661376953E+001   1.000000000000E-003      0  0.000000000000E+000  'Streams_Aoi_Drn_v1a_1'  # Data Set 6: Layer Row Column Elevation Cond IFACE DDRN boundname
     6   150    21  6.829816436768E+001   1.000000000000E-003      0  0.000000000000E+000  'Streams_Aoi_Drn_v1a_1'  # Data Set 6: Layer Row Column Elevation Cond IFACE DDRN boundname
     6   149    20  6.636364746094E+001   1.000000000000E-003      0  0.000000000000E+000  'Streams_Aoi_Drn_v1a_1'  # Data Set 6: Layer Row Column Elevation Cond IFACE DDRN boundname
     6   148    20  7.288478088379E+001   1.000000000000E-003      0  0.000000000000E+000  'Streams_Aoi_Drn_v1a_1'  # Data Set 6: Layer Row Column Elevation Cond IFACE DDRN boundname
     6   148    19  6.374531173706E+001   1.000000000000E-003      0  0.000000000000E+000  'Streams_Aoi_Drn_v1a_1'  # Data Set 6: Layer Row Column Elevation Cond IFACE DDRN boundname
     6   147    19  5.954745864868E+001   1.000000000000E-003      0  0.000000000000E+000  'Streams_Aoi_Drn_v1a_1'  # Data Set 6: Layer Row Column Elevation Cond IFACE DDRN boundname
     7   146    18  3.800816726685E+001   1.000000000000E-003      0  0.000000000000E+000  'Streams_Aoi_Drn_v1a_1'  # Data Set 6: Layer Row Column Elevation Cond IFACE DDRN boundname
     7   146    17  4.603554153442E+001   1.000000000000E-003      0  0.000000000000E+000  'Streams_Aoi_Drn_v1a_1'  # Data Set 6: Layer Row Column Elevation Cond IFACE DDRN boundname
     7   145    15  3.323255538940E+001   1.000000000000E-003      0  0.000000000000E+000  'Streams_Aoi_Drn_v1a_1'  # Data Set 6: Layer Row Column Elevation Cond IFACE DDRN boundname
     7   144    15  3.269641494751E+001   1.000000000000E-003      0  0.000000000000E+000  'Streams_Aoi_Drn_v1a_1'  # Data Set 6: Layer Row Column Elevation Cond IFACE DDRN boundname
     8   144    14  1.528933715820E+001   1.000000000000E-003      0  0.000000000000E+000  'Streams_Aoi_Drn_v1a_1'  # Data Set 6: Layer Row Column Elevation Cond IFACE DDRN boundname
     8   145    14  2.111591720581E+001   1.000000000000E-003      0  0.000000000000E+000  'Streams_Aoi_Drn_v1a_1'  # Data Set 6: Layer Row Column Elevation Cond IFACE DDRN boundname
     4    31    27  1.146762313843E+002   1.000000000000E-003      0  0.000000000000E+000  'Streams_Aoi_Drn_v1a_1'  # Data Set 6: Layer Row Column Elevation Cond IFACE DDRN boundname
     4    30    26  1.165329360962E+002   1.000000000000E-003      0  0.000000000000E+000  'Streams_Aoi_Drn_v1a_1'  # Data Set 6: Layer Row Column Elevation Cond IFACE DDRN boundname
     4    29    26  1.078095703125E+002   1.000000000000E-003      0  0.000000000000E+000  'Streams_Aoi_Drn_v1a_1'  # Data Set 6: Layer Row Column Elevation Cond IFACE DDRN boundname
     2   100    37  1.658846740723E+002   1.000000000000E-003      0  0.000000000000E+000  'Streams_Aoi_Drn_v1a_1'  # Data Set 6: Layer Row Column Elevation Cond IFACE DDRN boundname
     2   100    36  1.676811676025E+002   1.000000000000E-003      0  0.000000000000E+000  'Streams_Aoi_Drn_v1a_1'  # Data Set 6: Layer Row Column Elevation Cond IFACE DDRN boundname
     2    99    36  1.666168823242E+002   1.000000000000E-003      0  0.000000000000E+000  'Streams_Aoi_Drn_v1a_1'  # Data Set 6: Layer Row Column Elevation Cond IFACE DDRN boundname
     2    99    35  1.675292663574E+002   1.000000000000E-003      0  0.000000000000E+000  'Streams_Aoi_Drn_v1a_1'  # Data Set 6: Layer Row Column Elevation Cond IFACE DDRN boundname
     2   100    34  1.587412414551E+002   1.000000000000E-003      0  0.000000000000E+000  'Streams_Aoi_Drn_v1a_1'  # Data Set 6: Layer Row Column Elevation Cond IFACE DDRN boundname
     2    99    34  1.619343566895E+002   1.000000000000E-003      0  0.000000000000E+000  'Streams_Aoi_Drn_v1a_1'  # Data Set 6: Layer Row Column Elevation Cond IFACE DDRN boundname
     2    96    30  1.581526641846E+002   1.000000000000E-003      0  0.000000000000E+000  'Streams_Aoi_Drn_v1a_1'  # Data Set 6: Layer Row Column Elevation Cond IFACE DDRN boundname
     2    97    30  1.566586456299E+002   1.000000000000E-003      0  0.000000000000E+000  'Streams_Aoi_Drn_v1a_1'  # Data Set 6: Layer Row Column Elevation Cond IFACE DDRN boundname
     2    97    29  1.571973571777E+002   1.000000000000E-003      0  0.000000000000E+000  'Streams_Aoi_Drn_v1a_1'  # Data Set 6: Layer Row Column Elevation Cond IFACE DDRN boundname
     3    96    28  1.491696777344E+002   1.000000000000E-003      0  0.000000000000E+000  'Streams_Aoi_Drn_v1a_1'  # Data Set 6: Layer Row Column Elevation Cond IFACE DDRN boundname
     4    95    27  1.191620788574E+002   1.000000000000E-003      0  0.000000000000E+000  'Streams_Aoi_Drn_v1a_1'  # Data Set 6: Layer Row Column Elevation Cond IFACE DDRN boundname
     4    51    11  1.166866607666E+002   1.000000000000E-003      0  0.000000000000E+000  'Streams_Aoi_Drn_v1a_1'  # Data Set 6: Layer Row Column Elevation Cond IFACE DDRN boundname
     4    51    10  1.173184585571E+002   1.000000000000E-003      0  0.000000000000E+000  'Streams_Aoi_Drn_v1a_1'  # Data Set 6: Layer Row Column Elevation Cond IFACE DDRN boundname
     6    50     9  5.840596771240E+001   1.000000000000E-003      0  0.000000000000E+000  'Streams_Aoi_Drn_v1a_1'  # Data Set 6: Layer Row Column Elevation Cond IFACE DDRN boundname
     7    50     8  4.801519775391E+001   1.000000000000E-003      0  0.000000000000E+000  'Streams_Aoi_Drn_v1a_1'  # Data Set 6: Layer Row Column Elevation Cond IFACE DDRN boundname
     8    51     7  2.224192237854E+001   1.000000000000E-003      0  0.000000000000E+000  'Streams_Aoi_Drn_v1a_1'  # Data Set 6: Layer Row Column Elevation Cond IFACE DDRN boundname
     9    51     6 -2.499364912510E-001   1.000000000000E-003      0  0.000000000000E+000  'Streams_Aoi_Drn_v1a_1'  # Data Set 6: Layer Row Column Elevation Cond IFACE DDRN boundname
     5    61    21  9.843459320068E+001   1.000000000000E-003      0  0.000000000000E+000  'Streams_Aoi_Drn_v1a_1'  # Data Set 6: Layer Row Column Elevation Cond IFACE DDRN boundname
     4    62    21  1.201317672729E+002   1.000000000000E-003      0  0.000000000000E+000  'Streams_Aoi_Drn_v1a_1'  # Data Set 6: Layer Row Column Elevation Cond IFACE DDRN boundname
     5    62    17  8.719166564941E+001   1.000000000000E-003      0  0.000000000000E+000  'Streams_Aoi_Drn_v1a_1'  # Data Set 6: Layer Row Column Elevation Cond IFACE DDRN boundname
     5    62    16  9.420308685303E+001   1.000000000000E-003      0  0.000000000000E+000  'Streams_Aoi_Drn_v1a_1'  # Data Set 6: Layer Row Column Elevation Cond IFACE DDRN boundname
     4    63    16  1.152983779907E+002   1.000000000000E-003      0  0.000000000000E+000  'Streams_Aoi_Drn_v1a_1'  # Data Set 6: Layer Row Column Elevation Cond IFACE DDRN boundname
     5    63    15  8.428414916992E+001   1.000000000000E-003      0  0.000000000000E+000  'Streams_Aoi_Drn_v1a_1'  # Data Set 6: Layer Row Column Elevation Cond IFACE DDRN boundname
     6    63    14  5.998406600952E+001   1.000000000000E-003      0  0.000000000000E+000  'Streams_Aoi_Drn_v1a_1'  # Data Set 6: Layer Row Column Elevation Cond IFACE DDRN boundname
     5    64    14  8.631874084473E+001   1.000000000000E-003      0  0.000000000000E+000  'Streams_Aoi_Drn_v1a_1'  # Data Set 6: Layer Row Column Elevation Cond IFACE DDRN boundname
     6    64    13  6.492973327637E+001   1.000000000000E-003      0  0.000000000000E+000  'Streams_Aoi_Drn_v1a_1'  # Data Set 6: Layer Row Column Elevation Cond IFACE DDRN boundname
     5    65    13  8.834440612793E+001   1.000000000000E-003      0  0.000000000000E+000  'Streams_Aoi_Drn_v1a_1'  # Data Set 6: Layer Row Column Elevation Cond IFACE DDRN boundname
     6    66    12  6.647531890869E+001   1.000000000000E-003      0  0.000000000000E+000  'Streams_Aoi_Drn_v1a_1'  # Data Set 6: Layer Row Column Elevation Cond IFACE DDRN boundname
     7    68    11  4.325841522217E+001   1.000000000000E-003      0  0.000000000000E+000  'Streams_Aoi_Drn_v1a_1'  # Data Set 6: Layer Row Column Elevation Cond IFACE DDRN boundname
     7    68    11  4.325841522217E+001   1.000000000000E-003      0  0.000000000000E+000  'Streams_Aoi_Drn_v1a_1'  # Data Set 6: Layer Row Column Elevation Cond IFACE DDRN boundname