# GHB: General-Head Boundary package file created on 5/22/2025 by ModelMuse version 5.3.1.0.
BEGIN OPTIONS
    AUXILIARY IFACE
    BOUNDNAMES
    PRINT_INPUT
    SAVE_FLOWS
END OPTIONS

BEGIN DIMENSIONS
  MAXBOUND  1389
END DIMENSIONS

BEGIN PERIOD      1
     8     1     1  0.000000000000E+000   1.000000000000E-003      0 'GHB_Sea'  # Data Set 6: Layer Row Column Bhead Cond IFACE boundname
     8     2     1  0.000000000000E+000   1.000000000000E-003      0 'GHB_Sea'  # Data Set 6: Layer Row Column Bhead Cond IFACE boundname
     8     3     1  0.000000000000E+000   1.000000000000E-003      0 'GHB_Sea'  # Data Set 6: Layer Row Column Bhead Cond IFACE boundname
     8     4     1  0.000000000000E+000   1.000000000000E-003      0 'GHB_Sea'  # Data Set 6: Layer Row Column Bhead Cond IFACE boundname
     8     5     1  0.000000000000E+000   1.000000000000E-003      0 'GHB_Sea'  # Data Set 6: Layer Row Column Bhead Cond IFACE boundname
     8     6     1  0.000000000000E+000   1.000000000000E-003      0 'GHB_Sea'  # Data Set 6: Layer Row Column Bhead Cond IFACE boundname
     8     7     1  0.000000000000E+000   1.000000000000E-003      0 'GHB_Sea'  # Data Set 6: Layer Row Column Bhead Cond IFACE boundname
     8     8     1  0.000000000000E+000   1.000000000000E-003      0 'GHB_Sea'  # Data Set 6: Layer Row Column Bhead Cond IFACE boundname
     8     9     1  0.000000000000E+000   1.000000000000E-003      0 'GHB_Sea'  # Data Set 6: Layer Row Column Bhead Cond IFACE boundname
     8    10     1  0.000000000000E+000   1.000000000000E-003      0 'GHB_Sea'  # Data Set 6: Layer Row Column Bhead Cond IFACE boundname
     8    11     1  0.000000000000E+000   1.000000000000E-003      0 'GHB_Sea'  # Data Set 6: Layer Row Column Bhead Cond IFACE boundname
     8    12     1  0.000000000000E+000   1.000000000000E-003      0 'GHB_Sea'  # Data Set 6: Layer Row Column Bhead Cond IFACE boundname
     8    13     1  0.000000000000E+000   1.000000000000E-003      0 'GHB_Sea'  # Data Set 6: Layer Row Column Bhead Cond IFACE boundname
     8    14     1  0.000000000000E+000   1.000000000000E-003      0 'GHB_Sea'  # Data Set 6: Layer Row Column Bhead Cond IFACE boundname
     8    15     1  0.000000000000E+000   1.000000000000E-003      0 'GHB_Sea'  # Data Set 6: Layer Row Column Bhead Cond IFACE boundname
     8    16     1  0.000000000000E+000   1.000000000000E-003      0 'GHB_Sea'  # Data Set 6: Layer Row Column Bhead Cond IFACE boundname
     8    17     1  0.000000000000E+000   1.000000000000E-003      0 'GHB_Sea'  # Data Set 6: Layer Row Column Bhead Cond IFACE boundname
     8    18     1  0.000000000000E+000   1.000000000000E-003      0 'GHB_Sea'  # Data Set 6: Layer Row Column Bhead Cond IFACE boundname
     8    19     1  0.000000000000E+000   1.000000000000E-003      0 'GHB_Sea'  # Data Set 6: Layer Row Column Bhead Cond IFACE boundname
     8    20     1  0.000000000000E+000   1.000000000000E-003      0 'GHB_Sea'  # Data Set 6: Layer Row Column Bhead Cond IFACE boundname
     8    21     1  0.000000000000E+000   1.000000000000E-003      0 'GHB_Sea'  # Data Set 6: Layer Row Column Bhead Cond IFACE boundname
     8    22     1  0.000000000000E+000   1.000000000000E-003      0 'GHB_Sea'  # Data Set 6: Layer Row Column Bhead Cond IFACE boundname
     8    27     1  0.000000000000E+000   1.000000000000E-003      0 'GHB_Sea'  # Data Set 6: Layer Row Column Bhead Cond IFACE boundname
     8    28     1  0.000000000000E+000   1.000000000000E-003      0 'GHB_Sea'  # Data Set 6: Layer Row Column Bhead Cond IFACE boundname
     8    29     1  0.000000000000E+000   1.000000000000E-003      0 'GHB_Sea'  # Data Set 6: Layer Row Column Bhead Cond IFACE boundname
     8    30     1  0.000000000000E+000   1.000000000000E-003      0 'GHB_Sea'  # Data Set 6: Layer Row Column Bhead Cond IFACE boundname
     8    31     1  0.000000000000E+000   1.000000000000E-003      0 'GHB_Sea'  # Data Set 6: Layer Row Column Bhead Cond IFACE boundname
     8    32     1  0.000000000000E+000   1.000000000000E-003      0 'GHB_Sea'  # Data Set 6: Layer Row Column Bhead Cond IFACE boundname
     8    33     1  0.000000000000E+000   1.000000000000E-003      0 'GHB_Sea'  # Data Set 6: Layer Row Column Bhead Cond IFACE boundname
     8    34     1  0.000000000000E+000   1.000000000000E-003      0 'GHB_Sea'  # Data Set 6: Layer Row Column Bhead Cond IFACE boundname
     8    35     1  0.000000000000E+000   1.000000000000E-003      0 'GHB_Sea'  # Data Set 6: Layer Row Column Bhead Cond IFACE boundname
     8    36     1  0.000000000000E+000   1.000000000000E-003      0 'GHB_Sea'  # Data Set 6: Layer Row Column Bhead Cond IFACE boundname
     8    37     1  0.000000000000E+000   1.000000000000E-003      0 'GHB_Sea'  # Data Set 6: Layer Row Column Bhead Cond IFACE boundname
     8    38     1  0.000000000000E+000   1.000000000000E-003      0 'GHB_Sea'  # Data Set 6: Layer Row Column Bhead Cond IFACE boundname
     8    39     1  0.000000000000E+000   1.000000000000E-003      0 'GHB_Sea'  # Data Set 6: Layer Row Column Bhead Cond IFACE boundname
     8    40     1  0.000000000000E+000   1.000000000000E-003      0 'GHB_Sea'  # Data Set 6: Layer Row Column Bhead Cond IFACE boundname
     8    41     1  0.000000000000E+000   1.000000000000E-003      0 'GHB_Sea'  # Data Set 6: Layer Row Column Bhead Cond IFACE boundname
     8    42     1  0.000000000000E+000   1.000000000000E-003      0 'GHB_Sea'  # Data Set 6: Layer Row Column Bhead Cond IFACE boundname
     8    43     1  0.000000000000E+000   1.000000000000E-003      0 'GHB_Sea'  # Data Set 6: Layer Row Column Bhead Cond IFACE boundname
     8    44     1  0.000000000000E+000   1.000000000000E-003      0 'GHB_Sea'  # Data Set 6: Layer Row Column Bhead Cond IFACE boundname
     8    45     1  0.000000000000E+000   1.000000000000E-003      0 'GHB_Sea'  # Data Set 6: Layer Row Column Bhead Cond IFACE boundname
     8    46     1  0.000000000000E+000   1.000000000000E-003      0 'GHB_Sea'  # Data Set 6: Layer Row Column Bhead Cond IFACE boundname
     8    47     1  0.000000000000E+000   1.000000000000E-003      0 'GHB_Sea'  # Data Set 6: Layer Row Column Bhead Cond IFACE boundname
     8    48     1  0.000000000000E+000   1.000000000000E-003      0 'GHB_Sea'  # Data Set 6: Layer Row Column Bhead Cond IFACE boundname
     8    49     1  0.000000000000E+000   1.000000000000E-003      0 'GHB_Sea'  # Data Set 6: Layer Row Column Bhead Cond IFACE boundname
     8    50     1  0.000000000000E+000   1.000000000000E-003      0 'GHB_Sea'  # Data Set 6: Layer Row Column Bhead Cond IFACE boundname
     8    51     1  0.000000000000E+000   1.000000000000E-003      0 'GHB_Sea'  # Data Set 6: Layer Row Column Bhead Cond IFACE boundname
     8    52     1  0.000000000000E+000   1.000000000000E-003      0 'GHB_Sea'  # Data Set 6: Layer Row Column Bhead Cond IFACE boundname
     8    53     1  0.000000000000E+000   1.000000000000E-003      0 'GHB_Sea'  # Data Set 6: Layer Row Column Bhead Cond IFACE boundname
     8    54     1  0.000000000000E+000   1.000000000000E-003      0 'GHB_Sea'  # Data Set 6: Layer Row Column Bhead Cond IFACE boundname
     8    55     1  0.000000000000E+000   1.000000000000E-003      0 'GHB_Sea'  # Data Set 6: Layer Row Column Bhead Cond IFACE boundname
     8    56     1  0.000000000000E+000   1.000000000000E-003      0 'GHB_Sea'  # Data Set 6: Layer Row Column Bhead Cond IFACE boundname
     8    57     1  0.000000000000E+000   1.000000000000E-003      0 'GHB_Sea'  # Data Set 6: Layer Row Column Bhead Cond IFACE boundname
     8    58     1  0.000000000000E+000   1.000000000000E-003      0 'GHB_Sea'  # Data Set 6: Layer Row Column Bhead Cond IFACE boundname
     8    59     1  0.000000000000E+000   1.000000000000E-003      0 'GHB_Sea'  # Data Set 6: Layer Row Column Bhead Cond IFACE boundname
     8    60     1  0.000000000000E+000   1.000000000000E-003      0 'GHB_Sea'  # Data Set 6: Layer Row Column Bhead Cond IFACE boundname
     8    61     1  0.000000000000E+000   1.000000000000E-003      0 'GHB_Sea'  # Data Set 6: Layer Row Column Bhead Cond IFACE boundname
     8    62     1  0.000000000000E+000   1.000000000000E-003      0 'GHB_Sea'  # Data Set 6: Layer Row Column Bhead Cond IFACE boundname
     8    63     1  0.000000000000E+000   1.000000000000E-003      0 'GHB_Sea'  # Data Set 6: Layer Row Column Bhead Cond IFACE boundname
     8    64     1  0.000000000000E+000   1.000000000000E-003      0 'GHB_Sea'  # Data Set 6: Layer Row Column Bhead Cond IFACE boundname
     8    65     1  0.000000000000E+000   1.000000000000E-003      0 'GHB_Sea'  # Data Set 6: Layer Row Column Bhead Cond IFACE boundname
     8    66     1  0.000000000000E+000   1.000000000000E-003      0 'GHB_Sea'  # Data Set 6: Layer Row Column Bhead Cond IFACE boundname
     8    67     1  0.000000000000E+000   1.000000000000E-003      0 'GHB_Sea'  # Data Set 6: Layer Row Column Bhead Cond IFACE boundname
     8    68     1  0.000000000000E+000   1.000000000000E-003      0 'GHB_Sea'  # Data Set 6: Layer Row Column Bhead Cond IFACE boundname
     8    69     1  0.000000000000E+000   1.000000000000E-003      0 'GHB_Sea'  # Data Set 6: Layer Row Column Bhead Cond IFACE boundname
     8    70     1  0.000000000000E+000   1.000000000000E-003      0 'GHB_Sea'  # Data Set 6: Layer Row Column Bhead Cond IFACE boundname
     8    71     1  0.000000000000E+000   1.000000000000E-003      0 'GHB_Sea'  # Data Set 6: Layer Row Column Bhead Cond IFACE boundname
     8    72     1  0.000000000000E+000   1.000000000000E-003      0 'GHB_Sea'  # Data Set 6: Layer Row Column Bhead Cond IFACE boundname
     8    73     1  0.000000000000E+000   1.000000000000E-003      0 'GHB_Sea'  # Data Set 6: Layer Row Column Bhead Cond IFACE boundname
     8    74     1  0.000000000000E+000   1.000000000000E-003      0 'GHB_Sea'  # Data Set 6: Layer Row Column Bhead Cond IFACE boundname
     8    75     1  0.000000000000E+000   1.000000000000E-003      0 'GHB_Sea'  # Data Set 6: Layer Row Column Bhead Cond IFACE boundname
     8    76     1  0.000000000000E+000   1.000000000000E-003      0 'GHB_Sea'  # Data Set 6: Layer Row Column Bhead Cond IFACE boundname
     8    77     1  0.000000000000E+000   1.000000000000E-003      0 'GHB_Sea'  # Data Set 6: Layer Row Column Bhead Cond IFACE boundname
     8    78     1  0.000000000000E+000   1.000000000000E-003      0 'GHB_Sea'  # Data Set 6: Layer Row Column Bhead Cond IFACE boundname
     8    79     1  0.000000000000E+000   1.000000000000E-003      0 'GHB_Sea'  # Data Set 6: Layer Row Column Bhead Cond IFACE boundname
     8    80     1  0.000000000000E+000   1.000000000000E-003      0 'GHB_Sea'  # Data Set 6: Layer Row Column Bhead Cond IFACE boundname
     8    81     1  0.000000000000E+000   1.000000000000E-003      0 'GHB_Sea'  # Data Set 6: Layer Row Column Bhead Cond IFACE boundname
     8    82     1  0.000000000000E+000   1.000000000000E-003      0 'GHB_Sea'  # Data Set 6: Layer Row Column Bhead Cond IFACE boundname
     8    83     1  0.000000000000E+000   1.000000000000E-003      0 'GHB_Sea'  # Data Set 6: Layer Row Column Bhead Cond IFACE boundname
     8    84     1  0.000000000000E+000   1.000000000000E-003      0 'GHB_Sea'  # Data Set 6: Layer Row Column Bhead Cond IFACE boundname
     8    85     1  0.000000000000E+000   1.000000000000E-003      0 'GHB_Sea'  # Data Set 6: Layer Row Column Bhead Cond IFACE boundname
     8    86     1  0.000000000000E+000   1.000000000000E-003      0 'GHB_Sea'  # Data Set 6: Layer Row Column Bhead Cond IFACE boundname
     8    87     1  0.000000000000E+000   1.000000000000E-003      0 'GHB_Sea'  # Data Set 6: Layer Row Column Bhead Cond IFACE boundname
     8    88     1  0.000000000000E+000   1.000000000000E-003      0 'GHB_Sea'  # Data Set 6: Layer Row Column Bhead Cond IFACE boundname
     8    89     1  0.000000000000E+000   1.000000000000E-003      0 'GHB_Sea'  # Data Set 6: Layer Row Column Bhead Cond IFACE boundname
     8    90     1  0.000000000000E+000   1.000000000000E-003      0 'GHB_Sea'  # Data Set 6: Layer Row Column Bhead Cond IFACE boundname
     8    91     1  0.000000000000E+000   1.000000000000E-003      0 'GHB_Sea'  # Data Set 6: Layer Row Column Bhead Cond IFACE boundname
     8    92     1  0.000000000000E+000   1.000000000000E-003      0 'GHB_Sea'  # Data Set 6: Layer Row Column Bhead Cond IFACE boundname
     8    93     1  0.000000000000E+000   1.000000000000E-003      0 'GHB_Sea'  # Data Set 6: Layer Row Column Bhead Cond IFACE boundname
     8    94     1  0.000000000000E+000   1.000000000000E-003      0 'GHB_Sea'  # Data Set 6: Layer Row Column Bhead Cond IFACE boundname
     8    95     1  0.000000000000E+000   1.000000000000E-003      0 'GHB_Sea'  # Data Set 6: Layer Row Column Bhead Cond IFACE boundname
     8    96     1  0.000000000000E+000   1.000000000000E-003      0 'GHB_Sea'  # Data Set 6: Layer Row Column Bhead Cond IFACE boundname
     8    97     1  0.000000000000E+000   1.000000000000E-003      0 'GHB_Sea'  # Data Set 6: Layer Row Column Bhead Cond IFACE boundname
     8    98     1  0.000000000000E+000   1.000000000000E-003      0 'GHB_Sea'  # Data Set 6: Layer Row Column Bhead Cond IFACE boundname
     8    99     1  0.000000000000E+000   1.000000000000E-003      0 'GHB_Sea'  # Data Set 6: Layer Row Column Bhead Cond IFACE boundname
     8   100     1  0.000000000000E+000   1.000000000000E-003      0 'GHB_Sea'  # Data Set 6: Layer Row Column Bhead Cond IFACE boundname
     8   101     1  0.000000000000E+000   1.000000000000E-003      0 'GHB_Sea'  # Data Set 6: Layer Row Column Bhead Cond IFACE boundname
     8   102     1  0.000000000000E+000   1.000000000000E-003      0 'GHB_Sea'  # Data Set 6: Layer Row Column Bhead Cond IFACE boundname
     8   103     1  0.000000000000E+000   1.000000000000E-003      0 'GHB_Sea'  # Data Set 6: Layer Row Column Bhead Cond IFACE boundname
     8   104     1  0.000000000000E+000   1.000000000000E-003      0 'GHB_Sea'  # Data Set 6: Layer Row Column Bhead Cond IFACE boundname
     8   105     1  0.000000000000E+000   1.000000000000E-003      0 'GHB_Sea'  # Data Set 6: Layer Row Column Bhead Cond IFACE boundname
     8   106     1  0.000000000000E+000   1.000000000000E-003      0 'GHB_Sea'  # Data Set 6: Layer Row Column Bhead Cond IFACE boundname
     8   107     1  0.000000000000E+000   1.000000000000E-003      0 'GHB_Sea'  # Data Set 6: Layer Row Column Bhead Cond IFACE boundname
     8   108     1  0.000000000000E+000   1.000000000000E-003      0 'GHB_Sea'  # Data Set 6: Layer Row Column Bhead Cond IFACE boundname
     8   109     1  0.000000000000E+000   1.000000000000E-003      0 'GHB_Sea'  # Data Set 6: Layer Row Column Bhead Cond IFACE boundname
     8   110     1  0.000000000000E+000   1.000000000000E-003      0 'GHB_Sea'  # Data Set 6: Layer Row Column Bhead Cond IFACE boundname
     8   111     1  0.000000000000E+000   1.000000000000E-003      0 'GHB_Sea'  # Data Set 6: Layer Row Column Bhead Cond IFACE boundname
     8   112     1  0.000000000000E+000   1.000000000000E-003      0 'GHB_Sea'  # Data Set 6: Layer Row Column Bhead Cond IFACE boundname
     8   113     1  0.000000000000E+000   1.000000000000E-003      0 'GHB_Sea'  # Data Set 6: Layer Row Column Bhead Cond IFACE boundname
     8   114     1  0.000000000000E+000   1.000000000000E-003      0 'GHB_Sea'  # Data Set 6: Layer Row Column Bhead Cond IFACE boundname
     8   115     1  0.000000000000E+000   1.000000000000E-003      0 'GHB_Sea'  # Data Set 6: Layer Row Column Bhead Cond IFACE boundname
     8   116     1  0.000000000000E+000   1.000000000000E-003      0 'GHB_Sea'  # Data Set 6: Layer Row Column Bhead Cond IFACE boundname
     8   117     1  0.000000000000E+000   1.000000000000E-003      0 'GHB_Sea'  # Data Set 6: Layer Row Column Bhead Cond IFACE boundname
     8   118     1  0.000000000000E+000   1.000000000000E-003      0 'GHB_Sea'  # Data Set 6: Layer Row Column Bhead Cond IFACE boundname
     8   119     1  0.000000000000E+000   1.000000000000E-003      0 'GHB_Sea'  # Data Set 6: Layer Row Column Bhead Cond IFACE boundname
     8   120     1  0.000000000000E+000   1.000000000000E-003      0 'GHB_Sea'  # Data Set 6: Layer Row Column Bhead Cond IFACE boundname
     8   121     1  0.000000000000E+000   1.000000000000E-003      0 'GHB_Sea'  # Data Set 6: Layer Row Column Bhead Cond IFACE boundname
     8   122     1  0.000000000000E+000   1.000000000000E-003      0 'GHB_Sea'  # Data Set 6: Layer Row Column Bhead Cond IFACE boundname
     8   123     1  0.000000000000E+000   1.000000000000E-003      0 'GHB_Sea'  # Data Set 6: Layer Row Column Bhead Cond IFACE boundname
     8   124     1  0.000000000000E+000   1.000000000000E-003      0 'GHB_Sea'  # Data Set 6: Layer Row Column Bhead Cond IFACE boundname
     8   125     1  0.000000000000E+000   1.000000000000E-003      0 'GHB_Sea'  # Data Set 6: Layer Row Column Bhead Cond IFACE boundname
     8   126     1  0.000000000000E+000   1.000000000000E-003      0 'GHB_Sea'  # Data Set 6: Layer Row Column Bhead Cond IFACE boundname
     8   127     1  0.000000000000E+000   1.000000000000E-003      0 'GHB_Sea'  # Data Set 6: Layer Row Column Bhead Cond IFACE boundname
     8   128     1  0.000000000000E+000   1.000000000000E-003      0 'GHB_Sea'  # Data Set 6: Layer Row Column Bhead Cond IFACE boundname
     8   129     1  0.000000000000E+000   1.000000000000E-003      0 'GHB_Sea'  # Data Set 6: Layer Row Column Bhead Cond IFACE boundname
     8   130     1  0.000000000000E+000   1.000000000000E-003      0 'GHB_Sea'  # Data Set 6: Layer Row Column Bhead Cond IFACE boundname
     8   131     1  0.000000000000E+000   1.000000000000E-003      0 'GHB_Sea'  # Data Set 6: Layer Row Column Bhead Cond IFACE boundname
     8   132     1  0.000000000000E+000   1.000000000000E-003      0 'GHB_Sea'  # Data Set 6: Layer Row Column Bhead Cond IFACE boundname
     8   133     1  0.000000000000E+000   1.000000000000E-003      0 'GHB_Sea'  # Data Set 6: Layer Row Column Bhead Cond IFACE boundname
     8   134     1  0.000000000000E+000   1.000000000000E-003      0 'GHB_Sea'  # Data Set 6: Layer Row Column Bhead Cond IFACE boundname
     8   135     1  0.000000000000E+000   1.000000000000E-003      0 'GHB_Sea'  # Data Set 6: Layer Row Column Bhead Cond IFACE boundname
     8   136     1  0.000000000000E+000   1.000000000000E-003      0 'GHB_Sea'  # Data Set 6: Layer Row Column Bhead Cond IFACE boundname
     8   137     1  0.000000000000E+000   1.000000000000E-003      0 'GHB_Sea'  # Data Set 6: Layer Row Column Bhead Cond IFACE boundname
     8   138     1  0.000000000000E+000   1.000000000000E-003      0 'GHB_Sea'  # Data Set 6: Layer Row Column Bhead Cond IFACE boundname
     8   139     1  0.000000000000E+000   1.000000000000E-003      0 'GHB_Sea'  # Data Set 6: Layer Row Column Bhead Cond IFACE boundname
     8   140     1  0.000000000000E+000   1.000000000000E-003      0 'GHB_Sea'  # Data Set 6: Layer Row Column Bhead Cond IFACE boundname
     8   141     1  0.000000000000E+000   1.000000000000E-003      0 'GHB_Sea'  # Data Set 6: Layer Row Column Bhead Cond IFACE boundname
     8   142     1  0.000000000000E+000   1.000000000000E-003      0 'GHB_Sea'  # Data Set 6: Layer Row Column Bhead Cond IFACE boundname
     8   143     1  0.000000000000E+000   1.000000000000E-003      0 'GHB_Sea'  # Data Set 6: Layer Row Column Bhead Cond IFACE boundname
     8   144     1  0.000000000000E+000   1.000000000000E-003      0 'GHB_Sea'  # Data Set 6: Layer Row Column Bhead Cond IFACE boundname
     8   145     1  0.000000000000E+000   1.000000000000E-003      0 'GHB_Sea'  # Data Set 6: Layer Row Column Bhead Cond IFACE boundname
     8   146     1  0.000000000000E+000   1.000000000000E-003      0 'GHB_Sea'  # Data Set 6: Layer Row Column Bhead Cond IFACE boundname
     8   147     1  0.000000000000E+000   1.000000000000E-003      0 'GHB_Sea'  # Data Set 6: Layer Row Column Bhead Cond IFACE boundname
     8   148     1  0.000000000000E+000   1.000000000000E-003      0 'GHB_Sea'  # Data Set 6: Layer Row Column Bhead Cond IFACE boundname
     8   149     1  0.000000000000E+000   1.000000000000E-003      0 'GHB_Sea'  # Data Set 6: Layer Row Column Bhead Cond IFACE boundname
     8   150     1  0.000000000000E+000   1.000000000000E-003      0 'GHB_Sea'  # Data Set 6: Layer Row Column Bhead Cond IFACE boundname
     8   151     1  0.000000000000E+000   1.000000000000E-003      0 'GHB_Sea'  # Data Set 6: Layer Row Column Bhead Cond IFACE boundname
     8   152     1  0.000000000000E+000   1.000000000000E-003      0 'GHB_Sea'  # Data Set 6: Layer Row Column Bhead Cond IFACE boundname
     8   153     1  0.000000000000E+000   1.000000000000E-003      0 'GHB_Sea'  # Data Set 6: Layer Row Column Bhead Cond IFACE boundname
     8   154     1  0.000000000000E+000   1.000000000000E-003      0 'GHB_Sea'  # Data Set 6: Layer Row Column Bhead Cond IFACE boundname
     8   155     1  0.000000000000E+000   1.000000000000E-003      0 'GHB_Sea'  # Data Set 6: Layer Row Column Bhead Cond IFACE boundname
     8   156     1  0.000000000000E+000   1.000000000000E-003      0 'GHB_Sea'  # Data Set 6: Layer Row Column Bhead Cond IFACE boundname
     8   157     1  0.000000000000E+000   1.000000000000E-003      0 'GHB_Sea'  # Data Set 6: Layer Row Column Bhead Cond IFACE boundname
     8   158     1  0.000000000000E+000   1.000000000000E-003      0 'GHB_Sea'  # Data Set 6: Layer Row Column Bhead Cond IFACE boundname
     8   159     1  0.000000000000E+000   1.000000000000E-003      0 'GHB_Sea'  # Data Set 6: Layer Row Column Bhead Cond IFACE boundname
     8   160     1  0.000000000000E+000   1.000000000000E-003      0 'GHB_Sea'  # Data Set 6: Layer Row Column Bhead Cond IFACE boundname
     8   161     1  0.000000000000E+000   1.000000000000E-003      0 'GHB_Sea'  # Data Set 6: Layer Row Column Bhead Cond IFACE boundname
     8   162     1  0.000000000000E+000   1.000000000000E-003      0 'GHB_Sea'  # Data Set 6: Layer Row Column Bhead Cond IFACE boundname
     8   163     1  0.000000000000E+000   1.000000000000E-003      0 'GHB_Sea'  # Data Set 6: Layer Row Column Bhead Cond IFACE boundname
     8   164     1  0.000000000000E+000   1.000000000000E-003      0 'GHB_Sea'  # Data Set 6: Layer Row Column Bhead Cond IFACE boundname
     8   165     1  0.000000000000E+000   1.000000000000E-003      0 'GHB_Sea'  # Data Set 6: Layer Row Column Bhead Cond IFACE boundname
     8   166     1  0.000000000000E+000   1.000000000000E-003      0 'GHB_Sea'  # Data Set 6: Layer Row Column Bhead Cond IFACE boundname
     8   167     1  0.000000000000E+000   1.000000000000E-003      0 'GHB_Sea'  # Data Set 6: Layer Row Column Bhead Cond IFACE boundname
     8   168     1  0.000000000000E+000   1.000000000000E-003      0 'GHB_Sea'  # Data Set 6: Layer Row Column Bhead Cond IFACE boundname
     8   169     1  0.000000000000E+000   1.000000000000E-003      0 'GHB_Sea'  # Data Set 6: Layer Row Column Bhead Cond IFACE boundname
     8   170     1  0.000000000000E+000   1.000000000000E-003      0 'GHB_Sea'  # Data Set 6: Layer Row Column Bhead Cond IFACE boundname
     8   171     1  0.000000000000E+000   1.000000000000E-003      0 'GHB_Sea'  # Data Set 6: Layer Row Column Bhead Cond IFACE boundname
     8     1     2  0.000000000000E+000   1.000000000000E-003      0 'GHB_Sea'  # Data Set 6: Layer Row Column Bhead Cond IFACE boundname
     8     2     2  0.000000000000E+000   1.000000000000E-003      0 'GHB_Sea'  # Data Set 6: Layer Row Column Bhead Cond IFACE boundname
     8     3     2  0.000000000000E+000   1.000000000000E-003      0 'GHB_Sea'  # Data Set 6: Layer Row Column Bhead Cond IFACE boundname
     8     4     2  0.000000000000E+000   1.000000000000E-003      0 'GHB_Sea'  # Data Set 6: Layer Row Column Bhead Cond IFACE boundname
     8     5     2  0.000000000000E+000   1.000000000000E-003      0 'GHB_Sea'  # Data Set 6: Layer Row Column Bhead Cond IFACE boundname
     8     6     2  0.000000000000E+000   1.000000000000E-003      0 'GHB_Sea'  # Data Set 6: Layer Row Column Bhead Cond IFACE boundname
     8     7     2  0.000000000000E+000   1.000000000000E-003      0 'GHB_Sea'  # Data Set 6: Layer Row Column Bhead Cond IFACE boundname
     8     8     2  0.000000000000E+000   1.000000000000E-003      0 'GHB_Sea'  # Data Set 6: Layer Row Column Bhead Cond IFACE boundname
     8     9     2  0.000000000000E+000   1.000000000000E-003      0 'GHB_Sea'  # Data Set 6: Layer Row Column Bhead Cond IFACE boundname
     8    10     2  0.000000000000E+000   1.000000000000E-003      0 'GHB_Sea'  # Data Set 6: Layer Row Column Bhead Cond IFACE boundname
     8    11     2  0.000000000000E+000   1.000000000000E-003      0 'GHB_Sea'  # Data Set 6: Layer Row Column Bhead Cond IFACE boundname
     8    12     2  0.000000000000E+000   1.000000000000E-003      0 'GHB_Sea'  # Data Set 6: Layer Row Column Bhead Cond IFACE boundname
     8    13     2  0.000000000000E+000   1.000000000000E-003      0 'GHB_Sea'  # Data Set 6: Layer Row Column Bhead Cond IFACE boundname
     8    14     2  0.000000000000E+000   1.000000000000E-003      0 'GHB_Sea'  # Data Set 6: Layer Row Column Bhead Cond IFACE boundname
     8    15     2  0.000000000000E+000   1.000000000000E-003      0 'GHB_Sea'  # Data Set 6: Layer Row Column Bhead Cond IFACE boundname
     8    16     2  0.000000000000E+000   1.000000000000E-003      0 'GHB_Sea'  # Data Set 6: Layer Row Column Bhead Cond IFACE boundname
     8    17     2  0.000000000000E+000   1.000000000000E-003      0 'GHB_Sea'  # Data Set 6: Layer Row Column Bhead Cond IFACE boundname
     8    18     2  0.000000000000E+000   1.000000000000E-003      0 'GHB_Sea'  # Data Set 6: Layer Row Column Bhead Cond IFACE boundname
     8    19     2  0.000000000000E+000   1.000000000000E-003      0 'GHB_Sea'  # Data Set 6: Layer Row Column Bhead Cond IFACE boundname
     8    20     2  0.000000000000E+000   1.000000000000E-003      0 'GHB_Sea'  # Data Set 6: Layer Row Column Bhead Cond IFACE boundname
     8    21     2  0.000000000000E+000   1.000000000000E-003      0 'GHB_Sea'  # Data Set 6: Layer Row Column Bhead Cond IFACE boundname
     8    22     2  0.000000000000E+000   1.000000000000E-003      0 'GHB_Sea'  # Data Set 6: Layer Row Column Bhead Cond IFACE boundname
     8    36     2  0.000000000000E+000   1.000000000000E-003      0 'GHB_Sea'  # Data Set 6: Layer Row Column Bhead Cond IFACE boundname
     8    37     2  0.000000000000E+000   1.000000000000E-003      0 'GHB_Sea'  # Data Set 6: Layer Row Column Bhead Cond IFACE boundname
     8    38     2  0.000000000000E+000   1.000000000000E-003      0 'GHB_Sea'  # Data Set 6: Layer Row Column Bhead Cond IFACE boundname
     8    39     2  0.000000000000E+000   1.000000000000E-003      0 'GHB_Sea'  # Data Set 6: Layer Row Column Bhead Cond IFACE boundname
     8    40     2  0.000000000000E+000   1.000000000000E-003      0 'GHB_Sea'  # Data Set 6: Layer Row Column Bhead Cond IFACE boundname
     8    41     2  0.000000000000E+000   1.000000000000E-003      0 'GHB_Sea'  # Data Set 6: Layer Row Column Bhead Cond IFACE boundname
     8    42     2  0.000000000000E+000   1.000000000000E-003      0 'GHB_Sea'  # Data Set 6: Layer Row Column Bhead Cond IFACE boundname
     8    43     2  0.000000000000E+000   1.000000000000E-003      0 'GHB_Sea'  # Data Set 6: Layer Row Column Bhead Cond IFACE boundname
     8    44     2  0.000000000000E+000   1.000000000000E-003      0 'GHB_Sea'  # Data Set 6: Layer Row Column Bhead Cond IFACE boundname
     8    45     2  0.000000000000E+000   1.000000000000E-003      0 'GHB_Sea'  # Data Set 6: Layer Row Column Bhead Cond IFACE boundname
     8    46     2  0.000000000000E+000   1.000000000000E-003      0 'GHB_Sea'  # Data Set 6: Layer Row Column Bhead Cond IFACE boundname
     8    47     2  0.000000000000E+000   1.000000000000E-003      0 'GHB_Sea'  # Data Set 6: Layer Row Column Bhead Cond IFACE boundname
     8    48     2  0.000000000000E+000   1.000000000000E-003      0 'GHB_Sea'  # Data Set 6: Layer Row Column Bhead Cond IFACE boundname
     8    49     2  0.000000000000E+000   1.000000000000E-003      0 'GHB_Sea'  # Data Set 6: Layer Row Column Bhead Cond IFACE boundname
     8    50     2  0.000000000000E+000   1.000000000000E-003      0 'GHB_Sea'  # Data Set 6: Layer Row Column Bhead Cond IFACE boundname
     8    51     2  0.000000000000E+000   1.000000000000E-003      0 'GHB_Sea'  # Data Set 6: Layer Row Column Bhead Cond IFACE boundname
     8    52     2  0.000000000000E+000   1.000000000000E-003      0 'GHB_Sea'  # Data Set 6: Layer Row Column Bhead Cond IFACE boundname
     8    53     2  0.000000000000E+000   1.000000000000E-003      0 'GHB_Sea'  # Data Set 6: Layer Row Column Bhead Cond IFACE boundname
     8    54     2  0.000000000000E+000   1.000000000000E-003      0 'GHB_Sea'  # Data Set 6: Layer Row Column Bhead Cond IFACE boundname
     8    55     2  0.000000000000E+000   1.000000000000E-003      0 'GHB_Sea'  # Data Set 6: Layer Row Column Bhead Cond IFACE boundname
     8    56     2  0.000000000000E+000   1.000000000000E-003      0 'GHB_Sea'  # Data Set 6: Layer Row Column Bhead Cond IFACE boundname
     8    57     2  0.000000000000E+000   1.000000000000E-003      0 'GHB_Sea'  # Data Set 6: Layer Row Column Bhead Cond IFACE boundname
     8    58     2  0.000000000000E+000   1.000000000000E-003      0 'GHB_Sea'  # Data Set 6: Layer Row Column Bhead Cond IFACE boundname
     8    59     2  0.000000000000E+000   1.000000000000E-003      0 'GHB_Sea'  # Data Set 6: Layer Row Column Bhead Cond IFACE boundname
     8    60     2  0.000000000000E+000   1.000000000000E-003      0 'GHB_Sea'  # Data Set 6: Layer Row Column Bhead Cond IFACE boundname
     8    61     2  0.000000000000E+000   1.000000000000E-003      0 'GHB_Sea'  # Data Set 6: Layer Row Column Bhead Cond IFACE boundname