# ETS: Evapotranspiration Segments package file created on 5/22/2025 by ModelMuse version 5.3.1.0.
BEGIN OPTIONS
  AUXILIARY IFACE
  PRINT_INPUT
    SAVE_FLOWS
    BOUNDNAMES
  FIXED_CELL
END OPTIONS

BEGIN DIMENSIONS
  MAXBOUND  5402
  NSEG     1
END DIMENSIONS

BEGIN PERIOD      1
     9   170     1 -2.499364912510E-001   3.600000000000E-008   2.000000000000E+000      0 'Rch_Evt' 
     9   169     1 -2.499364912510E-001   3.600000000000E-008   2.000000000000E+000      0 'Rch_Evt' 
     9   168     1 -2.499364912510E-001   3.600000000000E-008   2.000000000000E+000      0 'Rch_Evt' 
     9   167     2 -2.499364912510E-001   3.600000000000E-008   2.000000000000E+000      0 'Rch_Evt' 
     9   167     1 -2.499364912510E-001   3.600000000000E-008   2.000000000000E+000      0 'Rch_Evt' 
     9   166     2 -2.499364912510E-001   3.600000000000E-008   2.000000000000E+000      0 'Rch_Evt' 
     9   165     2 -2.499364912510E-001   3.600000000000E-008   2.000000000000E+000      0 'Rch_Evt' 
     9   164     2 -2.499364912510E-001   3.600000000000E-008   2.000000000000E+000      0 'Rch_Evt' 
     9   163     3 -2.499364912510E-001   3.600000000000E-008   2.000000000000E+000      0 'Rch_Evt' 
     9   162     3 -2.499364912510E-001   3.600000000000E-008   2.000000000000E+000      0 'Rch_Evt' 
     9   162     2 -2.499364912510E-001   3.600000000000E-008   2.000000000000E+000      0 'Rch_Evt' 
     9   161     4 -2.499364912510E-001   3.600000000000E-008   2.000000000000E+000      0 'Rch_Evt' 
     9   161     3 -2.499364912510E-001   3.600000000000E-008   2.000000000000E+000      0 'Rch_Evt' 
     9   160     4 -2.499364912510E-001   3.600000000000E-008   2.000000000000E+000      0 'Rch_Evt' 
     9   160     3 -2.499364912510E-001   3.600000000000E-008   2.000000000000E+000      0 'Rch_Evt' 
     9   159     4 -2.499364912510E-001   3.600000000000E-008   2.000000000000E+000      0 'Rch_Evt' 
     9   158     5 -2.499364912510E-001   3.600000000000E-008   2.000000000000E+000      0 'Rch_Evt' 
     9   158     4 -2.499364912510E-001   3.600000000000E-008   2.000000000000E+000      0 'Rch_Evt' 
     9   156     5 -2.499364912510E-001   3.600000000000E-008   2.000000000000E+000      0 'Rch_Evt' 
     9   155     5 -2.499364912510E-001   3.600000000000E-008   2.000000000000E+000      0 'Rch_Evt' 
     9   154     6 -2.499364912510E-001   3.600000000000E-008   2.000000000000E+000      0 'Rch_Evt' 
     9   152     6 -2.499364912510E-001   3.600000000000E-008   2.000000000000E+000      0 'Rch_Evt' 
     9   151     6 -2.499364912510E-001   3.600000000000E-008   2.000000000000E+000      0 'Rch_Evt' 
     9   150     7 -2.499364912510E-001   3.600000000000E-008   2.000000000000E+000      0 'Rch_Evt' 
     9   149     7 -2.499364912510E-001   3.600000000000E-008   2.000000000000E+000      0 'Rch_Evt' 
     9   148     7 -2.499364912510E-001   3.600000000000E-008   2.000000000000E+000      0 'Rch_Evt' 
     9   146     8 -2.499364912510E-001   3.600000000000E-008   2.000000000000E+000      0 'Rch_Evt' 
     9   145    10 -2.499364912510E-001   3.600000000000E-008   2.000000000000E+000      0 'Rch_Evt' 
     9   145     9 -2.499364912510E-001   3.600000000000E-008   2.000000000000E+000      0 'Rch_Evt' 
     9   143    12 -2.499364912510E-001   3.600000000000E-008   2.000000000000E+000      0 'Rch_Evt' 
     9   142    13 -2.499364912510E-001   3.600000000000E-008   2.000000000000E+000      0 'Rch_Evt' 
     9   141    13 -2.499364912510E-001   3.600000000000E-008   2.000000000000E+000      0 'Rch_Evt' 
     9   140    14 -2.499364912510E-001   3.600000000000E-008   2.000000000000E+000      0 'Rch_Evt' 
     9   139    14 -2.499364912510E-001   3.600000000000E-008   2.000000000000E+000      0 'Rch_Evt' 
     9   137    14 -2.499364912510E-001   3.600000000000E-008   2.000000000000E+000      0 'Rch_Evt' 
     9   136    15 -2.499364912510E-001   3.600000000000E-008   2.000000000000E+000      0 'Rch_Evt' 
     9   135    15 -2.499364912510E-001   3.600000000000E-008   2.000000000000E+000      0 'Rch_Evt' 
     9   134    15 -2.499364912510E-001   3.600000000000E-008   2.000000000000E+000      0 'Rch_Evt' 
     9   132    16 -2.499364912510E-001   3.600000000000E-008   2.000000000000E+000      0 'Rch_Evt' 
     9   131    15 -2.499364912510E-001   3.600000000000E-008   2.000000000000E+000      0 'Rch_Evt' 
     9   129    15 -2.499364912510E-001   3.600000000000E-008   2.000000000000E+000      0 'Rch_Evt' 
     9   128    15 -2.499364912510E-001   3.600000000000E-008   2.000000000000E+000      0 'Rch_Evt' 
     9   127    15 -3.126860409975E-002   3.600000000000E-008   2.000000000000E+000      0 'Rch_Evt' 
     9   127    14 -2.499364912510E-001   3.600000000000E-008   2.000000000000E+000      0 'Rch_Evt' 
     9   126    15 -2.499364912510E-001   3.600000000000E-008   2.000000000000E+000      0 'Rch_Evt' 
     9   125    14 -2.499364912510E-001   3.600000000000E-008   2.000000000000E+000      0 'Rch_Evt' 
     9   121    13 -2.499364912510E-001   3.600000000000E-008   2.000000000000E+000      0 'Rch_Evt' 
     9   120    12 -2.499364912510E-001   3.600000000000E-008   2.000000000000E+000      0 'Rch_Evt' 
     9   119    13 -2.499364912510E-001   3.600000000000E-008   2.000000000000E+000      0 'Rch_Evt' 
     9   117    12 -2.499364912510E-001   3.600000000000E-008   2.000000000000E+000      0 'Rch_Evt' 
     9   116    13 -2.393142879009E-001   3.600000000000E-008   2.000000000000E+000      0 'Rch_Evt' 
     9   116    12 -2.499364912510E-001   3.600000000000E-008   2.000000000000E+000      0 'Rch_Evt' 
     9   115    13 -2.499364912510E-001   3.600000000000E-008   2.000000000000E+000      0 'Rch_Evt' 
     9   114    13 -2.499364912510E-001   3.600000000000E-008   2.000000000000E+000      0 'Rch_Evt' 
     9   113    14 -2.499364912510E-001   3.600000000000E-008   2.000000000000E+000      0 'Rch_Evt' 
     9   112    13 -2.499364912510E-001   3.600000000000E-008   2.000000000000E+000      0 'Rch_Evt' 
     9   111    14 -1.472159624100E-001   3.600000000000E-008   2.000000000000E+000      0 'Rch_Evt' 
     9   111    13 -2.499364912510E-001   3.600000000000E-008   2.000000000000E+000      0 'Rch_Evt' 
     9   110    13 -2.499364912510E-001   3.600000000000E-008   2.000000000000E+000      0 'Rch_Evt' 
     9   109    12 -2.499364912510E-001   3.600000000000E-008   2.000000000000E+000      0 'Rch_Evt' 
     9   108    12 -2.499364912510E-001   3.600000000000E-008   2.000000000000E+000      0 'Rch_Evt' 
     9   106    11 -2.499364912510E-001   3.600000000000E-008   2.000000000000E+000      0 'Rch_Evt' 
     9   105    11 -2.499364912510E-001   3.600000000000E-008   2.000000000000E+000      0 'Rch_Evt' 
     9   105    10 -2.499364912510E-001   3.600000000000E-008   2.000000000000E+000      0 'Rch_Evt' 
     9   104    10 -2.499364912510E-001   3.600000000000E-008   2.000000000000E+000      0 'Rch_Evt' 
     9   104     9 -2.499364912510E-001   3.600000000000E-008   2.000000000000E+000      0 'Rch_Evt' 
     9   103     8 -2.499364912510E-001   3.600000000000E-008   2.000000000000E+000      0 'Rch_Evt' 
     9   102     6 -2.499364912510E-001   3.600000000000E-008   2.000000000000E+000      0 'Rch_Evt' 
     9   101     6 -2.499364912510E-001   3.600000000000E-008   2.000000000000E+000      0 'Rch_Evt' 
     9   101     5 -2.499364912510E-001   3.600000000000E-008   2.000000000000E+000      0 'Rch_Evt' 
     9   100     6 -2.499364912510E-001   3.600000000000E-008   2.000000000000E+000      0 'Rch_Evt' 
     9    99     7 -2.499364912510E-001   3.600000000000E-008   2.000000000000E+000      0 'Rch_Evt' 
     9    99     6 -2.499364912510E-001   3.600000000000E-008   2.000000000000E+000      0 'Rch_Evt' 
     9    98     7 -2.464256286621E-001   3.600000000000E-008   2.000000000000E+000      0 'Rch_Evt' 
     9    98     6 -2.499364912510E-001   3.600000000000E-008   2.000000000000E+000      0 'Rch_Evt' 
     9    97     7 -2.499364912510E-001   3.600000000000E-008   2.000000000000E+000      0 'Rch_Evt' 
     9    96     6 -2.499364912510E-001   3.600000000000E-008   2.000000000000E+000      0 'Rch_Evt' 
     9    95     7 -2.072773277760E-001   3.600000000000E-008   2.000000000000E+000      0 'Rch_Evt' 
     9    95     6 -2.499364912510E-001   3.600000000000E-008   2.000000000000E+000      0 'Rch_Evt' 
     9    94     6 -2.499364912510E-001   3.600000000000E-008   2.000000000000E+000      0 'Rch_Evt' 
     9    93     6 -2.499364912510E-001   3.600000000000E-008   2.000000000000E+000      0 'Rch_Evt' 
     9    92     6 -2.499364912510E-001   3.600000000000E-008   2.000000000000E+000      0 'Rch_Evt' 
     9    91     6 -2.499364912510E-001   3.600000000000E-008   2.000000000000E+000      0 'Rch_Evt' 
     9    90     6 -2.499364912510E-001   3.600000000000E-008   2.000000000000E+000      0 'Rch_Evt' 
     9    90     5 -2.499364912510E-001   3.600000000000E-008   2.000000000000E+000      0 'Rch_Evt' 
     9    89     6 -2.499364912510E-001   3.600000000000E-008   2.000000000000E+000      0 'Rch_Evt' 
     9    88     6 -2.499364912510E-001   3.600000000000E-008   2.000000000000E+000      0 'Rch_Evt' 
     9    88     5 -2.499364912510E-001   3.600000000000E-008   2.000000000000E+000      0 'Rch_Evt' 
     9    87     5 -2.499364912510E-001   3.600000000000E-008   2.000000000000E+000      0 'Rch_Evt' 
     9    86     6 -2.499364912510E-001   3.600000000000E-008   2.000000000000E+000      0 'Rch_Evt' 
     9    85     6 -2.499364912510E-001   3.600000000000E-008   2.000000000000E+000      0 'Rch_Evt' 
     9    84     6 -2.499364912510E-001   3.600000000000E-008   2.000000000000E+000      0 'Rch_Evt' 
     9    83     5 -2.499364912510E-001   3.600000000000E-008   2.000000000000E+000      0 'Rch_Evt' 
     9    82     5 -2.499364912510E-001   3.600000000000E-008   2.000000000000E+000      0 'Rch_Evt' 
     9    82     4 -2.499364912510E-001   3.600000000000E-008   2.000000000000E+000      0 'Rch_Evt' 
     9    80     4 -2.499364912510E-001   3.600000000000E-008   2.000000000000E+000      0 'Rch_Evt' 
     9    79     4 -2.499364912510E-001   3.600000000000E-008   2.000000000000E+000      0 'Rch_Evt' 
     9    78     4 -2.499364912510E-001   3.600000000000E-008   2.000000000000E+000      0 'Rch_Evt' 
     9    77     4 -2.499364912510E-001   3.600000000000E-008   2.000000000000E+000      0 'Rch_Evt' 
     9    76     4 -2.499364912510E-001   3.600000000000E-008   2.000000000000E+000      0 'Rch_Evt' 
     9    74     4 -2.499364912510E-001   3.600000000000E-008   2.000000000000E+000      0 'Rch_Evt' 
     9    73     4 -2.499364912510E-001   3.600000000000E-008   2.000000000000E+000      0 'Rch_Evt' 
     9    73     3 -2.499364912510E-001   3.600000000000E-008   2.000000000000E+000      0 'Rch_Evt' 
     9    72     4 -2.499364912510E-001   3.600000000000E-008   2.000000000000E+000      0 'Rch_Evt' 
     9    72     3 -2.499364912510E-001   3.600000000000E-008   2.000000000000E+000      0 'Rch_Evt' 
     9    71     4 -2.499364912510E-001   3.600000000000E-008   2.000000000000E+000      0 'Rch_Evt' 
     9    70     4 -2.499364912510E-001   3.600000000000E-008   2.000000000000E+000      0 'Rch_Evt' 
     9    69     4 -2.499364912510E-001   3.600000000000E-008   2.000000000000E+000      0 'Rch_Evt' 
     9    68     4 -2.499364912510E-001   3.600000000000E-008   2.000000000000E+000      0 'Rch_Evt' 
     9    67     4 -2.499364912510E-001   3.600000000000E-008   2.000000000000E+000      0 'Rch_Evt' 
     9    66     4 -2.499364912510E-001   3.600000000000E-008   2.000000000000E+000      0 'Rch_Evt' 
     9    62     3 -2.499364912510E-001   3.600000000000E-008   2.000000000000E+000      0 'Rch_Evt' 
     9    61     3 -2.499364912510E-001   3.600000000000E-008   2.000000000000E+000      0 'Rch_Evt' 
     9    60     4 -3.736449405551E-002   3.600000000000E-008   2.000000000000E+000      0 'Rch_Evt' 
     9    60     3 -2.499364912510E-001   3.600000000000E-008   2.000000000000E+000      0 'Rch_Evt' 
     9    59     4 -2.499364912510E-001   3.600000000000E-008   2.000000000000E+000      0 'Rch_Evt' 
     9    58     4 -2.499364912510E-001   3.600000000000E-008   2.000000000000E+000      0 'Rch_Evt' 
     9    57     4 -2.499364912510E-001   3.600000000000E-008   2.000000000000E+000      0 'Rch_Evt' 
     9    56     5 -2.499364912510E-001   3.600000000000E-008   2.000000000000E+000      0 'Rch_Evt' 
     9    55     5 -2.499364912510E-001   3.600000000000E-008   2.000000000000E+000      0 'Rch_Evt' 
     9    55     4 -2.499364912510E-001   3.600000000000E-008   2.000000000000E+000      0 'Rch_Evt' 
     9    54     5 -2.499364912510E-001   3.600000000000E-008   2.000000000000E+000      0 'Rch_Evt' 
     9    53     5 -2.499364912510E-001   3.600000000000E-008   2.000000000000E+000      0 'Rch_Evt' 
     9    52     6 -2.499364912510E-001   3.600000000000E-008   2.000000000000E+000      0 'Rch_Evt' 
     9    52     5 -2.499364912510E-001   3.600000000000E-008   2.000000000000E+000      0 'Rch_Evt' 
     9    51     6 -2.499364912510E-001   3.600000000000E-008   2.000000000000E+000      0 'Rch_Evt' 
     9    51     5 -2.499364912510E-001   3.600000000000E-008   2.000000000000E+000      0 'Rch_Evt' 
     9    49     6 -2.499364912510E-001   3.600000000000E-008   2.000000000000E+000      0 'Rch_Evt' 
     9    48     6 -2.499364912510E-001   3.600000000000E-008   2.000000000000E+000      0 'Rch_Evt' 
     9    47     6 -2.499364912510E-001   3.600000000000E-008   2.000000000000E+000      0 'Rch_Evt' 
     9    46     6 -2.499364912510E-001   3.600000000000E-008   2.000000000000E+000      0 'Rch_Evt' 
     9    45     6 -2.499364912510E-001   3.600000000000E-008   2.000000000000E+000      0 'Rch_Evt' 
     9    44     6 -2.499364912510E-001   3.600000000000E-008   2.000000000000E+000      0 'Rch_Evt' 
     9    43     5 -2.499364912510E-001   3.600000000000E-008   2.000000000000E+000      0 'Rch_Evt' 
     9    41     4 -2.499364912510E-001   3.600000000000E-008   2.000000000000E+000      0 'Rch_Evt' 
     9    40     3 -2.499364912510E-001   3.600000000000E-008   2.000000000000E+000      0 'Rch_Evt' 
     9    39     3 -2.499364912510E-001   3.600000000000E-008   2.000000000000E+000      0 'Rch_Evt' 
     9    38     3 -2.499364912510E-001   3.600000000000E-008   2.000000000000E+000      0 'Rch_Evt' 
     9    37     2 -2.499364912510E-001   3.600000000000E-008   2.000000000000E+000      0 'Rch_Evt' 
     9    35     1 -2.499364912510E-001   3.600000000000E-008   2.000000000000E+000      0 'Rch_Evt' 
     9    34     1 -2.499364912510E-001   3.600000000000E-008   2.000000000000E+000      0 'Rch_Evt' 
     9    33     1 -2.499364912510E-001   3.600000000000E-008   2.000000000000E+000      0 'Rch_Evt' 
     9    32     1 -2.499364912510E-001   3.600000000000E-008   2.000000000000E+000      0 'Rch_Evt' 
     9    30     1 -2.499364912510E-001   3.600000000000E-008   2.000000000000E+000      0 'Rch_Evt' 
     9    29     1 -2.499364912510E-001   3.600000000000E-008   2.000000000000E+000      0 'Rch_Evt' 
     9    27     1 -2.499364912510E-001   3.600000000000E-008   2.000000000000E+000      0 'Rch_Evt' 
     9    21     3 -1.450096070766E-001   3.600000000000E-008   2.000000000000E+000      0 'Rch_Evt' 
     9    21     2 -2.499364912510E-001   3.600000000000E-008   2.000000000000E+000      0 'Rch_Evt' 
     9    21     1 -2.499364912510E-001   3.600000000000E-008   2.000000000000E+000      0 'Rch_Evt' 
     9    20     4 -2.499364912510E-001   3.600000000000E-008   2.000000000000E+000      0 'Rch_Evt' 
     9    20     3 -2.499364912510E-001   3.600000000000E-008   2.000000000000E+000      0 'Rch_Evt' 
     9    19     6 -2.499364912510E-001   3.600000000000E-008   2.000000000000E+000      0 'Rch_Evt' 
     9    19     5 -2.499364912510E-001   3.600000000000E-008   2.000000000000E+000      0 'Rch_Evt' 
     9    18     7 -2.499364912510E-001   3.600000000000E-008   2.000000000000E+000      0 'Rch_Evt' 
     9    17     8 -2.499364912510E-001   3.600000000000E-008   2.000000000000E+000      0 'Rch_Evt' 
     9    16     9 -2.499364912510E-001   3.600000000000E-008   2.000000000000E+000      0 'Rch_Evt' 
     9    16     8 -2.499364912510E-001   3.600000000000E-008   2.000000000000E+000      0 'Rch_Evt' 
     9    15    10 -2.499364912510E-001   3.600000000000E-008   2.000000000000E+000      0 'Rch_Evt' 
     9    14    11 -2.499364912510E-001   3.600000000000E-008   2.000000000000E+000      0 'Rch_Evt' 
     9    13    12 -2.499364912510E-001   3.600000000000E-008   2.000000000000E+000      0 'Rch_Evt' 
     9    13    11 -2.499364912510E-001   3.600000000000E-008   2.000000000000E+000      0 'Rch_Evt' 
     9    12    13 -2.499364912510E-001   3.600000000000E-008   2.000000000000E+000      0 'Rch_Evt' 
     9    11    15 -2.499364912510E-001   3.600000000000E-008   2.000000000000E+000      0 'Rch_Evt' 
     9    11    14 -2.499364912510E-001   3.600000000000E-008   2.000000000000E+000      0 'Rch_Evt' 
     9    10    15 -2.499364912510E-001   3.600000000000E-008   2.000000000000E+000      0 'Rch_Evt' 
     9     9    16 -2.499364912510E-001   3.600000000000E-008   2.000000000000E+000      0 'Rch_Evt' 
     9     9    15 -2.499364912510E-001   3.600000000000E-008   2.000000000000E+000      0 'Rch_Evt' 
     9     8    17 -2.499364912510E-001   3.600000000000E-008   2.000000000000E+000      0 'Rch_Evt' 
     9     8    16 -2.499364912510E-001   3.600000000000E-008   2.000000000000E+000      0 'Rch_Evt' 
     9     7    19 -2.499364912510E-001   3.600000000000E-008   2.000000000000E+000      0 'Rch_Evt' 
     9     7    18 -2.499364912510E-001   3.600000000000E-008   2.000000000000E+000      0 'Rch_Evt' 
     9     6    20 -2.300447374582E-001   3.600000000000E-008   2.000000000000E+000      0 'Rch_Evt' 
     9     6    19 -2.499364912510E-001   3.600000000000E-008   2.000000000000E+000      0 'Rch_Evt' 
     9     6    18 -2.499364912510E-001   3.600000000000E-008   2.000000000000E+000      0 'Rch_Evt' 
     9     5    22 -2.499364912510E-001   3.600000000000E-008   2.000000000000E+000      0 'Rch_Evt' 
     9     5    21 -2.499364912510E-001   3.600000000000E-008   2.000000000000E+000      0 'Rch_Evt' 
     9     5    20 -2.499364912510E-001   3.600000000000E-008   2.000000000000E+000      0 'Rch_Evt' 
     9     4    24 -2.499364912510E-001   3.600000000000E-008   2.000000000000E+000      0 'Rch_Evt' 
     9     4    23 -2.499364912510E-001   3.600000000000E-008   2.000000000000E+000      0 'Rch_Evt' 
     9     4    22 -2.499364912510E-001   3.600000000000E-008   2.000000000000E+000      0 'Rch_Evt' 
     9     3    26 -2.499364912510E-001   3.600000000000E-008   2.000000000000E+000      0 'Rch_Evt' 
     9     3    25 -2.499364912510E-001   3.600000000000E-008   2.000000000000E+000      0 'Rch_Evt' 
     9     2    27 -2.499364912510E-001   3.600000000000E-008   2.000000000000E+000      0 'Rch_Evt' 
     9     2    26 -2.499364912510E-001   3.600000000000E-008   2.000000000000E+000      0 'Rch_Evt' 
     9     1    28 -2.499364912510E-001   3.600000000000E-008   2.000000000000E+000      0 'Rch_Evt' 
     8   171     5  2.498830032349E+001   3.600000000000E-008   2.000000000000E+000      0 'Rch_Evt' 
     8   171     4  2.063900947571E+001   3.600000000000E-008   2.000000000000E+000      0 'Rch_Evt' 
     8   171     3  1.850013542175E+001   3.600000000000E-008   2.000000000000E+000      0 'Rch_Evt' 
     8   171     2  1.396808147430E+001   3.600000000000E-008   2.000000000000E+000      0 'Rch_Evt' 
     8   171     1  7.159191966057E-001   3.600000000000E-008   2.000000000000E+000      0 'Rch_Evt' 
     8   170     4  2.342406082153E+001   3.600000000000E-008   2.000000000000E+000      0 'Rch_Evt' 
     8   170     3  1.414175033569E+001   3.600000000000E-008   2.000000000000E+000      0 'Rch_Evt' 
     8   170     2  7.306337833405E+000   3.600000000000E-008   2.000000000000E+000      0 'Rch_Evt' 
     8   169     4  2.248252296448E+001   3.600000000000E-008   2.000000000000E+000      0 'Rch_Evt' 
     8   169     3  1.951211738586E+001   3.600000000000E-008   2.000000000000E+000      0 'Rch_Evt' 
     8   169     2  1.132245254517E+001   3.600000000000E-008   2.000000000000E+000      0 'Rch_Evt' 
     8   168     4  2.137313461304E+001   3.600000000000E-008   2.000000000000E+000      0 'Rch_Evt' 
     8   168     3  2.003181648254E+001   3.600000000000E-008   2.000000000000E+000      0 'Rch_Evt' 
     8   168     2  9.360734939575E+000   3.600000000000E-008   2.000000000000E+000      0 'Rch_Evt' 
     8   167     4  2.342749404907E+001   3.600000000000E-008   2.000000000000E+000      0 'Rch_Evt' 
     8   167     3  1.790198898315E+001   3.600000000000E-008   2.000000000000E+000      0 'Rch_Evt' 
     8   166     5  2.464689254761E+001   3.600000000000E-008   2.000000000000E+000      0 'Rch_Evt' 
     8   166     4  1.903190803528E+001   3.600000000000E-008   2.000000000000E+000      0 'Rch_Evt' 
     8   166     3  1.087023639679E+001   3.600000000000E-008   2.000000000000E+000      0 'Rch_Evt' 
     8   165     5  2.264804267883E+001   3.600000000000E-008   2.000000000000E+000      0 'Rch_Evt' 
     8   165     4  1.637949562073E+001   3.600000000000E-008   2.000000000000E+000      0 'Rch_Evt' 
     8   165     3  5.795308113098E+000   3.600000000000E-008   2.000000000000E+000      0 'Rch_Evt' 
     8   164     5  2.437008285522E+001   3.600000000000E-008   2.000000000000E+000      0 'Rch_Evt' 
     8   164     4  1.843623733521E+001   3.600000000000E-008   2.000000000000E+000      0 'Rch_Evt' 
     8   164     3  1.010129737854E+001   3.600000000000E-008   2.000000000000E+000      0 'Rch_Evt' 
     8   163     5  1.842481803894E+001   3.600000000000E-008   2.000000000000E+000      0 'Rch_Evt' 
     8   163     4  1.127804470062E+001   3.600000000000E-008   2.000000000000E+000      0 'Rch_Evt' 
     8   162     5  1.729324531555E+001   3.600000000000E-008   2.000000000000E+000      0 'Rch_Evt' 
     8   162     4  1.125387430191E+000   3.600000000000E-008   2.000000000000E+000      0 'Rch_Evt' 
     8   161     5  1.639215278625E+001   3.600000000000E-008   2.000000000000E+000      0 'Rch_Evt' 
     8   160     5  1.614199256897E+001   3.600000000000E-008   2.000000000000E+000      0 'Rch_Evt' 
     8   159     5  4.400622367859E+000   3.600000000000E-008   2.000000000000E+000      0 'Rch_Evt' 
     8   157     5  1.129517912865E+000   3.600000000000E-008   2.000000000000E+000      0 'Rch_Evt' 
     8   155     6  4.959649145603E-001   3.600000000000E-008   2.000000000000E+000      0 'Rch_Evt' 
     8   153     6  1.714208535850E-002   3.600000000000E-008   2.000000000000E+000      0 'Rch_Evt' 
     8   151     7  1.725707244873E+001   3.600000000000E-008   2.000000000000E+000      0 'Rch_Evt' 
     8   149    11  2.474837875366E+001   3.600000000000E-008   2.000000000000E+000      0 'Rch_Evt' 
     8   149     8  2.126489067078E+001   3.600000000000E-008   2.000000000000E+000      0 'Rch_Evt' 
     8   148    12  2.345163726807E+001   3.600000000000E-008   2.000000000000E+000      0 'Rch_Evt' 
     8   148    11  1.786598777771E+001   3.600000000000E-008   2.000000000000E+000      0 'Rch_Evt' 
     8   148    10  2.379472351074E+001   3.600000000000E-008   2.000000000000E+000      0 'Rch_Evt' 
     8   148     8  1.655929374695E+001   3.600000000000E-008   2.000000000000E+000      0 'Rch_Evt' 
     8   147    13  2.418848800659E+001   3.600000000000E-008   2.000000000000E+000      0 'Rch_Evt' 
     8   147    12  2.078770256042E+001   3.600000000000E-008   2.000000000000E+000      0 'Rch_Evt' 
     8   147    11  1.552439975739E+001   3.600000000000E-008   2.000000000000E+000      0 'Rch_Evt' 
     8   147    10  2.230519676208E+001   3.600000000000E-008   2.000000000000E+000      0 'Rch_Evt' 
     8   147     9  2.047135353088E+001   3.600000000000E-008   2.000000000000E+000      0 'Rch_Evt' 
     8   147     8  8.482053875923E-003   3.600000000000E-008   2.000000000000E+000      0 'Rch_Evt' 
     8   146    12  1.220611858368E+001   3.600000000000E-008   2.000000000000E+000      0 'Rch_Evt' 
     8   146    11  1.356812667847E+001   3.600000000000E-008   2.000000000000E+000      0 'Rch_Evt' 
     8   146    10  1.833650016785E+001   3.600000000000E-008   2.000000000000E+000      0 'Rch_Evt' 
     8   146     9  2.888325929642E+000   3.600000000000E-008   2.000000000000E+000      0 'Rch_Evt' 
     8   145    14  2.111591720581E+001   3.600000000000E-008   2.000000000000E+000      0 'Rch_Evt' 
     8   145    11  4.034502983093E+000   3.600000000000E-008   2.000000000000E+000      0 'Rch_Evt' 
     8   144    14  1.528933715820E+001   3.600000000000E-008   2.000000000000E+000      0 'Rch_Evt' 
     8   144    13  9.025837898254E+000   3.600000000000E-008   2.000000000000E+000      0 'Rch_Evt' 
     8   144    12  1.305700182915E+000   3.600000000000E-008   2.000000000000E+000      0 'Rch_Evt' 
     8   143    14  2.180587768555E+001   3.600000000000E-008   2.000000000000E+000      0 'Rch_Evt' 
     8   143    13  1.498588275909E+001   3.600000000000E-008   2.000000000000E+000      0 'Rch_Evt' 
     8   142    14  7.283301353455E+000   3.600000000000E-008   2.000000000000E+000      0 'Rch_Evt' 
     8   141    14  1.458344078064E+001   3.600000000000E-008   2.000000000000E+000      0 'Rch_Evt' 
     8   139    17  2.340758323669E+001   3.600000000000E-008   2.000000000000E+000      0 'Rch_Evt' 
     8   139    15  2.405826759338E+001   3.600000000000E-008   2.000000000000E+000      0 'Rch_Evt' 
     8   138    15  4.856503486633E+000   3.600000000000E-008   2.000000000000E+000      0 'Rch_Evt' 
     8   137    15  5.136290550232E+000   3.600000000000E-008   2.000000000000E+000      0 'Rch_Evt' 
     8   136    16  1.990976524353E+001   3.600000000000E-008   2.000000000000E+000      0 'Rch_Evt' 
     8   135    16  1.068906116486E+001   3.600000000000E-008   2.000000000000E+000      0 'Rch_Evt' 
     8   134    16  2.380619239807E+001   3.600000000000E-008   2.000000000000E+000      0 'Rch_Evt' 
     8   133    17  2.335134887695E+001   3.600000000000E-008   2.000000000000E+000      0 'Rch_Evt' 
     8   133    16  1.165908050537E+001   3.600000000000E-008   2.000000000000E+000      0 'Rch_Evt' 
     8   131    17  1.924390029907E+001   3.600000000000E-008   2.000000000000E+000      0 'Rch_Evt' 
     8   131    16  8.924162864685E+000   3.600000000000E-008   2.000000000000E+000      0 'Rch_Evt' 
     8   130    17  2.307098960876E+001   3.600000000000E-008   2.000000000000E+000      0 'Rch_Evt' 
     8   130    16  1.280502414703E+001   3.600000000000E-008   2.000000000000E+000      0 'Rch_Evt' 
     8   129    17  2.371653556824E+001   3.600000000000E-008   2.000000000000E+000      0 'Rch_Evt' 
     8   129    16  1.501799774170E+001   3.600000000000E-008   2.000000000000E+000      0 'Rch_Evt' 
     8   128    17  2.251186180115E+001   3.600000000000E-008   2.000000000000E+000      0 'Rch_Evt' 
     8   128    16  1.741619300842E+001   3.600000000000E-008   2.000000000000E+000      0 'Rch_Evt' 
     8   126    16  2.238273811340E+001   3.600000000000E-008   2.000000000000E+000      0 'Rch_Evt' 
     8   124    14  2.713002860546E-001   3.600000000000E-008   2.000000000000E+000      0 'Rch_Evt' 
     8   123    15  7.701220035553E+000   3.600000000000E-008   2.000000000000E+000      0 'Rch_Evt' 
     8   123    13  2.793053388596E+000   3.600000000000E-008   2.000000000000E+000      0 'Rch_Evt' 
     8   122    17  1.301254367828E+001   3.600000000000E-008   2.000000000000E+000      0 'Rch_Evt' 
     8   122    16  1.049300670624E+001   3.600000000000E-008   2.000000000000E+000      0 'Rch_Evt' 
     8   122    15  1.010323429108E+001   3.600000000000E-008   2.000000000000E+000      0 'Rch_Evt' 
     8   122    14  2.258683776855E+001   3.600000000000E-008   2.000000000000E+000      0 'Rch_Evt' 
     8   122    13  5.871995449066E+000   3.600000000000E-008   2.000000000000E+000      0 'Rch_Evt' 
     8   120    13  1.234384346008E+001   3.600000000000E-008   2.000000000000E+000      0 'Rch_Evt' 
     8   118    13  2.070949172974E+001   3.600000000000E-008   2.000000000000E+000      0 'Rch_Evt' 
     8   117    14  6.919845581055E+000   3.600000000000E-008   2.000000000000E+000      0 'Rch_Evt' 
     8   117    13  7.326238155365E+000   3.600000000000E-008   2.000000000000E+000      0 'Rch_Evt' 
     8   116    15  2.196010017395E+001   3.600000000000E-008   2.000000000000E+000      0 'Rch_Evt' 
     8   116    14  1.701014709473E+001   3.600000000000E-008   2.000000000000E+000      0 'Rch_Evt' 
     8   115    14  3.074732780457E+000   3.600000000000E-008   2.000000000000E+000      0 'Rch_Evt' 
     8   114    14  1.044259738922E+001   3.600000000000E-008   2.000000000000E+000      0 'Rch_Evt' 
     8   112    14  7.564840316772E+000   3.600000000000E-008   2.000000000000E+000      0 'Rch_Evt' 
     8   110    14  7.514742851257E+000   3.600000000000E-008   2.000000000000E+000      0 'Rch_Evt' 
     8   109    13  3.266005992889E+000   3.600000000000E-008   2.000000000000E+000      0 'Rch_Evt' 
     8   108    13  1.262828540802E+001   3.600000000000E-008   2.000000000000E+000      0 'Rch_Evt' 
     8   107    13  2.063352012634E+001   3.600000000000E-008   2.000000000000E+000      0 'Rch_Evt' 
     8   107    12  3.602011680603E+000   3.600000000000E-008   2.000000000000E+000      0 'Rch_Evt' 
     8   106    12  1.571491622925E+001   3.600000000000E-008   2.000000000000E+000      0 'Rch_Evt' 
     8   104    11  2.039690971375E+001   3.600000000000E-008   2.000000000000E+000      0 'Rch_Evt' 
     8   103    10  1.753917694092E+001   3.600000000000E-008   2.000000000000E+000      0 'Rch_Evt' 
     8   102     8  8.735432624817E+000   3.600000000000E-008   2.000000000000E+000      0 'Rch_Evt' 
     8   102     7  9.530993700027E-001   3.600000000000E-008   2.000000000000E+000      0 'Rch_Evt' 