# RCH: Recharge package file created on 5/22/2025 by ModelMuse version 5.3.1.0.
BEGIN OPTIONS
  AUXILIARY IFACE
  PRINT_INPUT
    SAVE_FLOWS
    BOUNDNAMES
END OPTIONS

BEGIN DIMENSIONS
  MAXBOUND  7375
END DIMENSIONS

BEGIN PERIOD      1
     8   170     1  6.849315068493E-009      0 'Rch_Evt' 
     8   169     1  6.849315068493E-009      0 'Rch_Evt' 
     8   168     1  6.849315068493E-009      0 'Rch_Evt' 
     8   167     2  6.849315068493E-009      0 'Rch_Evt' 
     8   167     1  6.849315068493E-009      0 'Rch_Evt' 
     8   166     2  6.849315068493E-009      0 'Rch_Evt' 
     8   165     2  6.849315068493E-009      0 'Rch_Evt' 
     8   164     2  6.849315068493E-009      0 'Rch_Evt' 
     8   163     3  6.849315068493E-009      0 'Rch_Evt' 
     8   162     3  6.849315068493E-009      0 'Rch_Evt' 
     8   162     2  6.849315068493E-009      0 'Rch_Evt' 
     8   161     4  6.849315068493E-009      0 'Rch_Evt' 
     8   161     3  6.849315068493E-009      0 'Rch_Evt' 
     8   160     4  6.849315068493E-009      0 'Rch_Evt' 
     8   160     3  6.849315068493E-009      0 'Rch_Evt' 
     8   159     4  6.849315068493E-009      0 'Rch_Evt' 
     8   158     5  6.849315068493E-009      0 'Rch_Evt' 
     8   158     4  6.849315068493E-009      0 'Rch_Evt' 
     8   156     5  6.849315068493E-009      0 'Rch_Evt' 
     8   155     5  6.849315068493E-009      0 'Rch_Evt' 
     8   154     6  6.849315068493E-009      0 'Rch_Evt' 
     8   152     6  6.849315068493E-009      0 'Rch_Evt' 
     8   151     6  6.849315068493E-009      0 'Rch_Evt' 
     8   150     7  6.849315068493E-009      0 'Rch_Evt' 
     8   149     7  6.849315068493E-009      0 'Rch_Evt' 
     8   148     7  6.849315068493E-009      0 'Rch_Evt' 
     8   146     8  6.849315068493E-009      0 'Rch_Evt' 
     8   145    10  6.849315068493E-009      0 'Rch_Evt' 
     8   145     9  6.849315068493E-009      0 'Rch_Evt' 
     8   143    12  6.849315068493E-009      0 'Rch_Evt' 
     8   142    13  6.849315068493E-009      0 'Rch_Evt' 
     8   141    13  6.849315068493E-009      0 'Rch_Evt' 
     8   140    14  6.849315068493E-009      0 'Rch_Evt' 
     8   139    14  6.849315068493E-009      0 'Rch_Evt' 
     8   137    14  6.849315068493E-009      0 'Rch_Evt' 
     8   136    15  6.849315068493E-009      0 'Rch_Evt' 
     8   135    15  6.849315068493E-009      0 'Rch_Evt' 
     8   134    15  6.849315068493E-009      0 'Rch_Evt' 
     8   132    16  6.849315068493E-009      0 'Rch_Evt' 
     8   131    15  6.849315068493E-009      0 'Rch_Evt' 
     8   129    15  6.849315068493E-009      0 'Rch_Evt' 
     8   128    15  6.849315068493E-009      0 'Rch_Evt' 
     8   127    15  6.849315068493E-009      0 'Rch_Evt' 
     8   127    14  6.849315068493E-009      0 'Rch_Evt' 
     8   126    15  6.849315068493E-009      0 'Rch_Evt' 
     8   125    14  6.849315068493E-009      0 'Rch_Evt' 
     8   121    13  6.849315068493E-009      0 'Rch_Evt' 
     8   120    12  6.849315068493E-009      0 'Rch_Evt' 
     8   119    13  6.849315068493E-009      0 'Rch_Evt' 
     8   117    12  6.849315068493E-009      0 'Rch_Evt' 
     8   116    13  6.849315068493E-009      0 'Rch_Evt' 
     8   116    12  6.849315068493E-009      0 'Rch_Evt' 
     8   115    13  6.849315068493E-009      0 'Rch_Evt' 
     8   114    13  6.849315068493E-009      0 'Rch_Evt' 
     8   113    14  6.849315068493E-009      0 'Rch_Evt' 
     8   112    13  6.849315068493E-009      0 'Rch_Evt' 
     8   111    14  6.849315068493E-009      0 'Rch_Evt' 
     8   111    13  6.849315068493E-009      0 'Rch_Evt' 
     8   110    13  6.849315068493E-009      0 'Rch_Evt' 
     8   109    12  6.849315068493E-009      0 'Rch_Evt' 
     8   108    12  6.849315068493E-009      0 'Rch_Evt' 
     8   106    11  6.849315068493E-009      0 'Rch_Evt' 
     8   105    11  6.849315068493E-009      0 'Rch_Evt' 
     8   105    10  6.849315068493E-009      0 'Rch_Evt' 
     8   104    10  6.849315068493E-009      0 'Rch_Evt' 
     8   104     9  6.849315068493E-009      0 'Rch_Evt' 
     8   103     8  6.849315068493E-009      0 'Rch_Evt' 
     8   102     6  6.849315068493E-009      0 'Rch_Evt' 
     8   101     6  6.849315068493E-009      0 'Rch_Evt' 
     8   101     5  6.849315068493E-009      0 'Rch_Evt' 
     8   100     6  6.849315068493E-009      0 'Rch_Evt' 
     8    99     7  6.849315068493E-009      0 'Rch_Evt' 
     8    99     6  6.849315068493E-009      0 'Rch_Evt' 
     8    98     7  6.849315068493E-009      0 'Rch_Evt' 
     8    98     6  6.849315068493E-009      0 'Rch_Evt' 
     8    97     7  6.849315068493E-009      0 'Rch_Evt' 
     8    96     6  6.849315068493E-009      0 'Rch_Evt' 
     9    95     7  6.849315068493E-009      0 'Rch_Evt' 
     8    95     6  6.849315068493E-009      0 'Rch_Evt' 
     8    94     6  6.849315068493E-009      0 'Rch_Evt' 
     8    93     6  6.849315068493E-009      0 'Rch_Evt' 
     8    92     6  6.849315068493E-009      0 'Rch_Evt' 
     8    91     6  6.849315068493E-009      0 'Rch_Evt' 
     8    90     6  6.849315068493E-009      0 'Rch_Evt' 
     8    90     5  6.849315068493E-009      0 'Rch_Evt' 
     8    89     6  6.849315068493E-009      0 'Rch_Evt' 
     8    88     6  6.849315068493E-009      0 'Rch_Evt' 
     8    88     5  6.849315068493E-009      0 'Rch_Evt' 
     8    87     5  6.849315068493E-009      0 'Rch_Evt' 
     8    86     6  6.849315068493E-009      0 'Rch_Evt' 
     8    85     6  6.849315068493E-009      0 'Rch_Evt' 
     8    84     6  6.849315068493E-009      0 'Rch_Evt' 
     8    83     5  6.849315068493E-009      0 'Rch_Evt' 
     8    82     5  6.849315068493E-009      0 'Rch_Evt' 
     8    82     4  6.849315068493E-009      0 'Rch_Evt' 
     8    80     4  6.849315068493E-009      0 'Rch_Evt' 
     8    79     4  6.849315068493E-009      0 'Rch_Evt' 
     8    78     4  6.849315068493E-009      0 'Rch_Evt' 
     8    77     4  6.849315068493E-009      0 'Rch_Evt' 
     8    76     4  6.849315068493E-009      0 'Rch_Evt' 
     8    74     4  6.849315068493E-009      0 'Rch_Evt' 
     8    73     4  6.849315068493E-009      0 'Rch_Evt' 
     8    73     3  6.849315068493E-009      0 'Rch_Evt' 
     8    72     4  6.849315068493E-009      0 'Rch_Evt' 
     8    72     3  6.849315068493E-009      0 'Rch_Evt' 
     8    71     4  6.849315068493E-009      0 'Rch_Evt' 
     8    70     4  6.849315068493E-009      0 'Rch_Evt' 
     8    69     4  6.849315068493E-009      0 'Rch_Evt' 
     8    68     4  6.849315068493E-009      0 'Rch_Evt' 
     8    67     4  6.849315068493E-009      0 'Rch_Evt' 
     8    66     4  6.849315068493E-009      0 'Rch_Evt' 
     8    62     3  6.849315068493E-009      0 'Rch_Evt' 
     8    61     3  6.849315068493E-009      0 'Rch_Evt' 
     8    60     4  6.849315068493E-009      0 'Rch_Evt' 
     8    60     3  6.849315068493E-009      0 'Rch_Evt' 
     8    59     4  6.849315068493E-009      0 'Rch_Evt' 
     8    58     4  6.849315068493E-009      0 'Rch_Evt' 
     8    57     4  6.849315068493E-009      0 'Rch_Evt' 
     8    56     5  6.849315068493E-009      0 'Rch_Evt' 
     8    55     5  6.849315068493E-009      0 'Rch_Evt' 
     8    55     4  6.849315068493E-009      0 'Rch_Evt' 
     8    54     5  6.849315068493E-009      0 'Rch_Evt' 
     8    53     5  6.849315068493E-009      0 'Rch_Evt' 
     8    52     6  6.849315068493E-009      0 'Rch_Evt' 
     8    52     5  6.849315068493E-009      0 'Rch_Evt' 
     8    51     6  6.849315068493E-009      0 'Rch_Evt' 
     8    51     5  6.849315068493E-009      0 'Rch_Evt' 
     8    49     6  6.849315068493E-009      0 'Rch_Evt' 
     8    48     6  6.849315068493E-009      0 'Rch_Evt' 
     8    47     6  6.849315068493E-009      0 'Rch_Evt' 
     8    46     6  6.849315068493E-009      0 'Rch_Evt' 
     8    45     6  6.849315068493E-009      0 'Rch_Evt' 
     8    44     6  6.849315068493E-009      0 'Rch_Evt' 
     8    43     5  6.849315068493E-009      0 'Rch_Evt' 
     8    41     4  6.849315068493E-009      0 'Rch_Evt' 
     8    40     3  6.849315068493E-009      0 'Rch_Evt' 
     8    39     3  6.849315068493E-009      0 'Rch_Evt' 
     8    38     3  6.849315068493E-009      0 'Rch_Evt' 
     8    37     2  6.849315068493E-009      0 'Rch_Evt' 
     8    35     1  6.849315068493E-009      0 'Rch_Evt' 
     8    34     1  6.849315068493E-009      0 'Rch_Evt' 
     8    33     1  6.849315068493E-009      0 'Rch_Evt' 
     8    32     1  6.849315068493E-009      0 'Rch_Evt' 
     8    30     1  6.849315068493E-009      0 'Rch_Evt' 
     8    29     1  6.849315068493E-009      0 'Rch_Evt' 
     8    27     1  6.849315068493E-009      0 'Rch_Evt' 
     8    21     3  6.849315068493E-009      0 'Rch_Evt' 
     8    21     2  6.849315068493E-009      0 'Rch_Evt' 
     8    21     1  6.849315068493E-009      0 'Rch_Evt' 
     8    20     4  6.849315068493E-009      0 'Rch_Evt' 
     8    20     3  6.849315068493E-009      0 'Rch_Evt' 
     8    19     6  6.849315068493E-009      0 'Rch_Evt' 
     8    19     5  6.849315068493E-009      0 'Rch_Evt' 
     8    18     7  6.849315068493E-009      0 'Rch_Evt' 
     8    17     8  6.849315068493E-009      0 'Rch_Evt' 
     8    16     9  6.849315068493E-009      0 'Rch_Evt' 
     8    16     8  6.849315068493E-009      0 'Rch_Evt' 
     8    15    10  6.849315068493E-009      0 'Rch_Evt' 
     8    14    11  6.849315068493E-009      0 'Rch_Evt' 
     8    13    12  6.849315068493E-009      0 'Rch_Evt' 
     8    13    11  6.849315068493E-009      0 'Rch_Evt' 
     8    12    13  6.849315068493E-009      0 'Rch_Evt' 
     8    11    15  6.849315068493E-009      0 'Rch_Evt' 
     8    11    14  6.849315068493E-009      0 'Rch_Evt' 
     8    10    15  6.849315068493E-009      0 'Rch_Evt' 
     8     9    16  6.849315068493E-009      0 'Rch_Evt' 
     8     9    15  6.849315068493E-009      0 'Rch_Evt' 
     8     8    17  6.849315068493E-009      0 'Rch_Evt' 
     8     8    16  6.849315068493E-009      0 'Rch_Evt' 
     8     7    19  6.849315068493E-009      0 'Rch_Evt' 
     8     7    18  6.849315068493E-009      0 'Rch_Evt' 
     8     6    20  6.849315068493E-009      0 'Rch_Evt' 
     8     6    19  6.849315068493E-009      0 'Rch_Evt' 
     8     6    18  6.849315068493E-009      0 'Rch_Evt' 
     8     5    22  6.849315068493E-009      0 'Rch_Evt' 
     8     5    21  6.849315068493E-009      0 'Rch_Evt' 
     8     5    20  6.849315068493E-009      0 'Rch_Evt' 
     8     4    24  6.849315068493E-009      0 'Rch_Evt' 
     8     4    23  6.849315068493E-009      0 'Rch_Evt' 
     8     4    22  6.849315068493E-009      0 'Rch_Evt' 
     8     3    26  6.849315068493E-009      0 'Rch_Evt' 
     8     3    25  6.849315068493E-009      0 'Rch_Evt' 
     8     2    27  6.849315068493E-009      0 'Rch_Evt' 
     8     2    26  6.849315068493E-009      0 'Rch_Evt' 
     8     1    28  6.849315068493E-009      0 'Rch_Evt' 
     8   171     5  6.849315068493E-009      0 'Rch_Evt' 
     8   171     4  6.849315068493E-009      0 'Rch_Evt' 
     8   171     3  6.849315068493E-009      0 'Rch_Evt' 
     8   171     2  6.849315068493E-009      0 'Rch_Evt' 
     8   171     1  6.849315068493E-009      0 'Rch_Evt' 
     8   170     4  6.849315068493E-009      0 'Rch_Evt' 
     8   170     3  6.849315068493E-009      0 'Rch_Evt' 
     8   170     2  6.849315068493E-009      0 'Rch_Evt' 
     8   169     4  6.849315068493E-009      0 'Rch_Evt' 
     8   169     3  6.849315068493E-009      0 'Rch_Evt' 
     8   169     2  6.849315068493E-009      0 'Rch_Evt' 
     8   168     4  6.849315068493E-009      0 'Rch_Evt' 
     8   168     3  6.849315068493E-009      0 'Rch_Evt' 
     8   168     2  6.849315068493E-009      0 'Rch_Evt' 
     8   167     4  6.849315068493E-009      0 'Rch_Evt' 
     8   167     3  6.849315068493E-009      0 'Rch_Evt' 
     8   166     5  6.849315068493E-009      0 'Rch_Evt' 
     8   166     4  6.849315068493E-009      0 'Rch_Evt' 
     8   166     3  6.849315068493E-009      0 'Rch_Evt' 
     8   165     5  6.849315068493E-009      0 'Rch_Evt' 
     8   165     4  6.849315068493E-009      0 'Rch_Evt' 
     8   165     3  6.849315068493E-009      0 'Rch_Evt' 
     8   164     5  6.849315068493E-009      0 'Rch_Evt' 
     8   164     4  6.849315068493E-009      0 'Rch_Evt' 
     8   164     3  6.849315068493E-009      0 'Rch_Evt' 
     8   163     5  6.849315068493E-009      0 'Rch_Evt' 
     8   163     4  6.849315068493E-009      0 'Rch_Evt' 
     8   162     5  6.849315068493E-009      0 'Rch_Evt' 
     8   162     4  6.849315068493E-009      0 'Rch_Evt' 
     8   161     5  6.849315068493E-009      0 'Rch_Evt' 
     8   160     5  6.849315068493E-009      0 'Rch_Evt' 
     8   159     5  6.849315068493E-009      0 'Rch_Evt' 
     8   157     5  6.849315068493E-009      0 'Rch_Evt' 
     8   155     6  6.849315068493E-009      0 'Rch_Evt' 
     8   153     6  6.849315068493E-009      0 'Rch_Evt' 
     8   151     7  6.849315068493E-009      0 'Rch_Evt' 
     8   149    11  6.849315068493E-009      0 'Rch_Evt' 
     8   149     8  6.849315068493E-009      0 'Rch_Evt' 
     8   148    12  6.849315068493E-009      0 'Rch_Evt' 
     8   148    11  6.849315068493E-009      0 'Rch_Evt' 
     8   148    10  6.849315068493E-009      0 'Rch_Evt' 
     8   148     8  6.849315068493E-009      0 'Rch_Evt' 
     8   147    13  6.849315068493E-009      0 'Rch_Evt' 
     8   147    12  6.849315068493E-009      0 'Rch_Evt' 
     8   147    11  6.849315068493E-009      0 'Rch_Evt' 
     8   147    10  6.849315068493E-009      0 'Rch_Evt' 
     8   147     9  6.849315068493E-009      0 'Rch_Evt' 
     8   147     8  6.849315068493E-009      0 'Rch_Evt' 
     8   146    12  6.849315068493E-009      0 'Rch_Evt' 
     8   146    11  6.849315068493E-009      0 'Rch_Evt' 
     8   146    10  6.849315068493E-009      0 'Rch_Evt' 
     8   146     9  6.849315068493E-009      0 'Rch_Evt' 
     8   145    14  6.849315068493E-009      0 'Rch_Evt' 
     9   145    13  6.849315068493E-009      0 'Rch_Evt' 
     9   145    12  6.849315068493E-009      0 'Rch_Evt' 
     8   145    11  6.849315068493E-009      0 'Rch_Evt' 
     8   144    14  6.849315068493E-009      0 'Rch_Evt' 
     8   144    13  6.849315068493E-009      0 'Rch_Evt' 
     8   144    12  6.849315068493E-009      0 'Rch_Evt' 
     8   143    14  6.849315068493E-009      0 'Rch_Evt' 
     8   143    13  6.849315068493E-009      0 'Rch_Evt' 
     8   142    14  6.849315068493E-009      0 'Rch_Evt' 
     8   141    14  6.849315068493E-009      0 'Rch_Evt' 
     8   139    17  6.849315068493E-009      0 'Rch_Evt' 
     8   139    15  6.849315068493E-009      0 'Rch_Evt' 
     9   138    16  6.849315068493E-009      0 'Rch_Evt' 
     8   138    15  6.849315068493E-009      0 'Rch_Evt' 
     8   137    15  6.849315068493E-009      0 'Rch_Evt' 
     8   136    16  6.849315068493E-009      0 'Rch_Evt' 
     8   135    16  6.849315068493E-009      0 'Rch_Evt' 
     8   134    16  6.849315068493E-009      0 'Rch_Evt' 
     8   133    17  6.849315068493E-009      0 'Rch_Evt' 
     8   133    16  6.849315068493E-009      0 'Rch_Evt' 
     8   131    17  6.849315068493E-009      0 'Rch_Evt' 
     8   131    16  6.849315068493E-009      0 'Rch_Evt' 
     8   130    17  6.849315068493E-009      0 'Rch_Evt' 
     8   130    16  6.849315068493E-009      0 'Rch_Evt' 
     8   129    17  6.849315068493E-009      0 'Rch_Evt' 
     8   129    16  6.849315068493E-009      0 'Rch_Evt' 
     8   128    17  6.849315068493E-009      0 'Rch_Evt' 
     8   128    16  6.849315068493E-009      0 'Rch_Evt' 
     8   126    16  6.849315068493E-009      0 'Rch_Evt' 
     9   125    15  6.849315068493E-009      0 'Rch_Evt' 
     8   124    14  6.849315068493E-009      0 'Rch_Evt' 
     8   123    15  6.849315068493E-009      0 'Rch_Evt' 
     9   123    14  6.849315068493E-009      0 'Rch_Evt' 
     8   123    13  6.849315068493E-009      0 'Rch_Evt' 
     8   122    17  6.849315068493E-009      0 'Rch_Evt' 
     8   122    16  6.849315068493E-009      0 'Rch_Evt' 
     8   122    15  6.849315068493E-009      0 'Rch_Evt' 
     8   122    14  6.849315068493E-009      0 'Rch_Evt' 
     8   122    13  6.849315068493E-009      0 'Rch_Evt' 
     8   120    13  6.849315068493E-009      0 'Rch_Evt' 
     8   118    13  6.849315068493E-009      0 'Rch_Evt' 
     8   117    14  6.849315068493E-009      0 'Rch_Evt' 
     8   117    13  6.849315068493E-009      0 'Rch_Evt' 
     8   116    15  6.849315068493E-009      0 'Rch_Evt' 
     8   116    14  6.849315068493E-009      0 'Rch_Evt' 
     8   115    14  6.849315068493E-009      0 'Rch_Evt' 
     8   114    14  6.849315068493E-009      0 'Rch_Evt' 
     8   112    14  6.849315068493E-009      0 'Rch_Evt' 
     8   110    14  6.849315068493E-009      0 'Rch_Evt' 
     8   109    13  6.849315068493E-009      0 'Rch_Evt' 
     8   108    13  6.849315068493E-009      0 'Rch_Evt' 
     8   107    13  6.849315068493E-009      0 'Rch_Evt' 
     8   107    12  6.849315068493E-009      0 'Rch_Evt' 
     8   106    12  6.849315068493E-009      0 'Rch_Evt' 
     8   104    11  6.849315068493E-009      0 'Rch_Evt' 
     8   103    10  6.849315068493E-009      0 'Rch_Evt' 
     9   103     9  6.849315068493E-009      0 'Rch_Evt' 
     8   102     8  6.849315068493E-009      0 'Rch_Evt' 
     8   102     7  6.849315068493E-009      0 'Rch_Evt' 
     8   101     9  6.849315068493E-009      0 'Rch_Evt' 
     9   101     8  6.849315068493E-009      0 'Rch_Evt' 
     8   101     7  6.849315068493E-009      0 'Rch_Evt' 
     8   100    10  6.849315068493E-009      0 'Rch_Evt' 
     8   100     9  6.849315068493E-009      0 'Rch_Evt' 
     8   100     7  6.849315068493E-009      0 'Rch_Evt' 
     8    99     8  6.849315068493E-009      0 'Rch_Evt' 
     8    97     8  6.849315068493E-009      0 'Rch_Evt' 
     8    96     8  6.849315068493E-009      0 'Rch_Evt' 
     8    96     7  6.849315068493E-009      0 'Rch_Evt' 
     9    94     7  6.849315068493E-009      0 'Rch_Evt' 
     9    93     7  6.849315068493E-009      0 'Rch_Evt' 
     9    92     7  6.849315068493E-009      0 'Rch_Evt' 
     8    91     7  6.849315068493E-009      0 'Rch_Evt' 
     8    90     7  6.849315068493E-009      0 'Rch_Evt' 
     8    88     7  6.849315068493E-009      0 'Rch_Evt' 
     8    87     7  6.849315068493E-009      0 'Rch_Evt' 
     8    87     6  6.849315068493E-009      0 'Rch_Evt' 
     8    86     7  6.849315068493E-009      0 'Rch_Evt' 
     8    85     7  6.849315068493E-009      0 'Rch_Evt' 
     8    82     6  6.849315068493E-009      0 'Rch_Evt' 
     8    81     6  6.849315068493E-009      0 'Rch_Evt' 
     8    81     5  6.849315068493E-009      0 'Rch_Evt' 
     8    79     5  6.849315068493E-009      0 'Rch_Evt' 
     8    78     6  6.849315068493E-009      0 'Rch_Evt' 
     8    78     5  6.849315068493E-009      0 'Rch_Evt' 
     8    76     5  6.849315068493E-009      0 'Rch_Evt' 
     8    75     5  6.849315068493E-009      0 'Rch_Evt' 
     8    75     4  6.849315068493E-009      0 'Rch_Evt' 
     8    72     5  6.849315068493E-009      0 'Rch_Evt' 
     8    70     5  6.849315068493E-009      0 'Rch_Evt' 
     8    69     5  6.849315068493E-009      0 'Rch_Evt' 
     8    68     5  6.849315068493E-009      0 'Rch_Evt' 
     8    67     9  6.849315068493E-009      0 'Rch_Evt' 
     8    66     8  6.849315068493E-009      0 'Rch_Evt' 
     8    66     7  6.849315068493E-009      0 'Rch_Evt' 
     8    66     6  6.849315068493E-009      0 'Rch_Evt' 
     9    65     5  6.849315068493E-009      0 'Rch_Evt' 
     8    65     4  6.849315068493E-009      0 'Rch_Evt' 
     9    64     4  6.849315068493E-009      0 'Rch_Evt' 
     8    64     3  6.849315068493E-009      0 'Rch_Evt' 
     9    63     4  6.849315068493E-009      0 'Rch_Evt' 
     8    63     3  6.849315068493E-009      0 'Rch_Evt' 
     9    62     4  6.849315068493E-009      0 'Rch_Evt' 
     8    61     4  6.849315068493E-009      0 'Rch_Evt' 
     8    59     5  6.849315068493E-009      0 'Rch_Evt' 
     8    58     6  6.849315068493E-009      0 'Rch_Evt' 
     8    58     5  6.849315068493E-009      0 'Rch_Evt' 
     8    57     5  6.849315068493E-009      0 'Rch_Evt' 
     8    54     6  6.849315068493E-009      0 'Rch_Evt' 
     8    53     6  6.849315068493E-009      0 'Rch_Evt' 
     8    51     7  6.849315068493E-009      0 'Rch_Evt' 
     8    50     6  6.849315068493E-009      0 'Rch_Evt' 
     8    48     7  6.849315068493E-009      0 'Rch_Evt' 
     8    46     7  6.849315068493E-009      0 'Rch_Evt' 
     8    45     7  6.849315068493E-009      0 'Rch_Evt' 
     8    44     7  6.849315068493E-009      0 'Rch_Evt' 
     8    42     6  6.849315068493E-009      0 'Rch_Evt' 
     8    42     5  6.849315068493E-009      0 'Rch_Evt' 
     9    41     5  6.849315068493E-009      0 'Rch_Evt' 
     8    40     4  6.849315068493E-009      0 'Rch_Evt' 
     8    39     4  6.849315068493E-009      0 'Rch_Evt' 
     8    38     4  6.849315068493E-009      0 'Rch_Evt' 
     9    37     3  6.849315068493E-009      0 'Rch_Evt' 
     8    36     3  6.849315068493E-009      0 'Rch_Evt' 
     8    36     2  6.849315068493E-009      0 'Rch_Evt' 
     9    35     2  6.849315068493E-009      0 'Rch_Evt' 
     9    34     2  6.849315068493E-009      0 'Rch_Evt' 
     8    33     2  6.849315068493E-009      0 'Rch_Evt' 
     8    31     1  6.849315068493E-009      0 'Rch_Evt' 
     8    28     2  6.849315068493E-009      0 'Rch_Evt' 
     8    28     1  6.849315068493E-009      0 'Rch_Evt' 
     8    27     3  6.849315068493E-009      0 'Rch_Evt' 
     8    27     2  6.849315068493E-009      0 'Rch_Evt' 
     8    26     3  6.849315068493E-009      0 'Rch_Evt' 
     8    26     2  6.849315068493E-009      0 'Rch_Evt' 
     9    26     1  6.849315068493E-009      0 'Rch_Evt' 
     8    25     3  6.849315068493E-009      0 'Rch_Evt' 
     8    25     2  6.849315068493E-009      0 'Rch_Evt' 
     9    25     1  6.849315068493E-009      0 'Rch_Evt' 
     8    24     5  6.849315068493E-009      0 'Rch_Evt' 
     8    24     4  6.849315068493E-009      0 'Rch_Evt' 
     8    24     3  6.849315068493E-009      0 'Rch_Evt' 
     9    24     2  6.849315068493E-009      0 'Rch_Evt' 
     9    24     1  6.849315068493E-009      0 'Rch_Evt' 
     8    23     7  6.849315068493E-009      0 'Rch_Evt' 
     8    23     6  6.849315068493E-009      0 'Rch_Evt' 
     8    23     5  6.849315068493E-009      0 'Rch_Evt' 
     8    23     4  6.849315068493E-009      0 'Rch_Evt' 
     9    23     3  6.849315068493E-009      0 'Rch_Evt' 
     9    23     2  6.849315068493E-009      0 'Rch_Evt' 
     9    23     1  6.849315068493E-009      0 'Rch_Evt' 
     8    22     6  6.849315068493E-009      0 'Rch_Evt' 
     8    22     5  6.849315068493E-009      0 'Rch_Evt' 
     9    22     4  6.849315068493E-009      0 'Rch_Evt' 
     9    22     3  6.849315068493E-009      0 'Rch_Evt' 
     8    22     2  6.849315068493E-009      0 'Rch_Evt' 
     8    22     1  6.849315068493E-009      0 'Rch_Evt' 
     9    21     6  6.849315068493E-009      0 'Rch_Evt' 
     9    21     5  6.849315068493E-009      0 'Rch_Evt' 
     9    21     4  6.849315068493E-009      0 'Rch_Evt' 
     8    20    11  6.849315068493E-009      0 'Rch_Evt' 
     8    20    10  6.849315068493E-009      0 'Rch_Evt' 
     8    20     7  6.849315068493E-009      0 'Rch_Evt' 
     9    20     6  6.849315068493E-009      0 'Rch_Evt' 
     8    20     5  6.849315068493E-009      0 'Rch_Evt' 
     8    19    11  6.849315068493E-009      0 'Rch_Evt' 
     8    19    10  6.849315068493E-009      0 'Rch_Evt' 
     9    19     8  6.849315068493E-009      0 'Rch_Evt' 
     8    19     7  6.849315068493E-009      0 'Rch_Evt' 
     8    18    11  6.849315068493E-009      0 'Rch_Evt' 
     8    18    10  6.849315068493E-009      0 'Rch_Evt' 
     9    18     9  6.849315068493E-009      0 'Rch_Evt' 
     8    18     8  6.849315068493E-009      0 'Rch_Evt' 
     8    17    11  6.849315068493E-009      0 'Rch_Evt' 
     8    17    10  6.849315068493E-009      0 'Rch_Evt' 
     8    17     9  6.849315068493E-009      0 'Rch_Evt' 
     8    16    11  6.849315068493E-009      0 'Rch_Evt' 
     8    16    10  6.849315068493E-009      0 'Rch_Evt' 
     8    15    14  6.849315068493E-009      0 'Rch_Evt' 
     8    15    13  6.849315068493E-009      0 'Rch_Evt' 
     8    15    12  6.849315068493E-009      0 'Rch_Evt' 
     8    15    11  6.849315068493E-009      0 'Rch_Evt' 
     8    14    12  6.849315068493E-009      0 'Rch_Evt' 
     8    13    14  6.849315068493E-009      0 'Rch_Evt' 
     8    13    13  6.849315068493E-009      0 'Rch_Evt' 
     8    12    14  6.849315068493E-009      0 'Rch_Evt' 
     8     9    17  6.849315068493E-009      0 'Rch_Evt' 
     8     8    18  6.849315068493E-009      0 'Rch_Evt' 
     8     7    20  6.849315068493E-009      0 'Rch_Evt' 
     8     6    22  6.849315068493E-009      0 'Rch_Evt' 
     8     6    21  6.849315068493E-009      0 'Rch_Evt' 
     8     5    23  6.849315068493E-009      0 'Rch_Evt' 
     8     4    28  6.849315068493E-009      0 'Rch_Evt' 
     8     4    25  6.849315068493E-009      0 'Rch_Evt' 
     8     3    31  6.849315068493E-009      0 'Rch_Evt' 
     8     3    28  6.849315068493E-009      0 'Rch_Evt' 
     8     3    27  6.849315068493E-009      0 'Rch_Evt' 
     8     2    31  6.849315068493E-009      0 'Rch_Evt' 
     8     2    28  6.849315068493E-009      0 'Rch_Evt' 
     8     1    30  6.849315068493E-009      0 'Rch_Evt' 
     8     1    29  6.849315068493E-009      0 'Rch_Evt' 
     7   172    10  6.849315068493E-009      0 'Rch_Evt' 
     7   172     9  6.849315068493E-009      0 'Rch_Evt' 
     7   172     8  6.849315068493E-009      0 'Rch_Evt' 
     7   172     7  6.849315068493E-009      0 'Rch_Evt' 
     8   172     6  6.849315068493E-009      0 'Rch_Evt' 
     7   171     9  6.849315068493E-009      0 'Rch_Evt' 
     7   171     8  6.849315068493E-009      0 'Rch_Evt' 
     7   171     7  6.849315068493E-009      0 'Rch_Evt' 
     8   171     6  6.849315068493E-009      0 'Rch_Evt' 
     7   170     9  6.849315068493E-009      0 'Rch_Evt' 
     7   170     8  6.849315068493E-009      0 'Rch_Evt' 
     7   170     7  6.849315068493E-009      0 'Rch_Evt' 
     7   170     6  6.849315068493E-009      0 'Rch_Evt' 
     8   170     5  6.849315068493E-009      0 'Rch_Evt' 
     7   169     9  6.849315068493E-009      0 'Rch_Evt' 
     7   169     8  6.849315068493E-009      0 'Rch_Evt' 
     7   169     7  6.849315068493E-009      0 'Rch_Evt' 
     8   169     6  6.849315068493E-009      0 'Rch_Evt' 
     8   169     5  6.849315068493E-009      0 'Rch_Evt' 
     7   168     8  6.849315068493E-009      0 'Rch_Evt' 
     7   168     7  6.849315068493E-009      0 'Rch_Evt' 
     7   168     6  6.849315068493E-009      0 'Rch_Evt' 
     8   168     5  6.849315068493E-009      0 'Rch_Evt' 
     7   167     8  6.849315068493E-009      0 'Rch_Evt' 
     7   167     7  6.849315068493E-009      0 'Rch_Evt' 
     8   167     6  6.849315068493E-009      0 'Rch_Evt' 
     8   167     5  6.849315068493E-009      0 'Rch_Evt' 
     7   166     8  6.849315068493E-009      0 'Rch_Evt' 
     7   166     7  6.849315068493E-009      0 'Rch_Evt' 
     7   166     6  6.849315068493E-009      0 'Rch_Evt' 
     7   165     7  6.849315068493E-009      0 'Rch_Evt' 
     8   165     6  6.849315068493E-009      0 'Rch_Evt' 
     7   164     7  6.849315068493E-009      0 'Rch_Evt' 
     8   164     6  6.849315068493E-009      0 'Rch_Evt' 
     7   163     7  6.849315068493E-009      0 'Rch_Evt' 
     8   163     6  6.849315068493E-009      0 'Rch_Evt' 
     7   162     7  6.849315068493E-009      0 'Rch_Evt' 
     7   162     6  6.849315068493E-009      0 'Rch_Evt' 
     7   161     6  6.849315068493E-009      0 'Rch_Evt' 
     7   160     6  6.849315068493E-009      0 'Rch_Evt' 
     7   159     6  6.849315068493E-009      0 'Rch_Evt' 
     7   158     6  6.849315068493E-009      0 'Rch_Evt' 
     7   157     6  6.849315068493E-009      0 'Rch_Evt' 
     7   154     7  6.849315068493E-009      0 'Rch_Evt' 
     7   153     7  6.849315068493E-009      0 'Rch_Evt' 
     7   152     9  6.849315068493E-009      0 'Rch_Evt' 
     7   152     8  6.849315068493E-009      0 'Rch_Evt' 
     8   152     7  6.849315068493E-009      0 'Rch_Evt' 
     7   151    10  6.849315068493E-009      0 'Rch_Evt' 
     7   151     9  6.849315068493E-009      0 'Rch_Evt' 
     8   151     8  6.849315068493E-009      0 'Rch_Evt' 
     7   150    11  6.849315068493E-009      0 'Rch_Evt' 
     8   150    10  6.849315068493E-009      0 'Rch_Evt' 
     7   150     9  6.849315068493E-009      0 'Rch_Evt' 
     8   150     8  6.849315068493E-009      0 'Rch_Evt' 
     7   149    12  6.849315068493E-009      0 'Rch_Evt' 
     7   149    10  6.849315068493E-009      0 'Rch_Evt' 
     7   149     9  6.849315068493E-009      0 'Rch_Evt' 
     8   148     9  6.849315068493E-009      0 'Rch_Evt' 
     7   147    15  6.849315068493E-009      0 'Rch_Evt' 
     7   147    14  6.849315068493E-009      0 'Rch_Evt' 
     7   146    18  6.849315068493E-009      0 'Rch_Evt' 
     7   146    17  6.849315068493E-009      0 'Rch_Evt' 
     7   146    15  6.849315068493E-009      0 'Rch_Evt' 
     7   146    14  6.849315068493E-009      0 'Rch_Evt' 
     8   146    13  6.849315068493E-009      0 'Rch_Evt' 
     7   145    15  6.849315068493E-009      0 'Rch_Evt' 
     7   144    16  6.849315068493E-009      0 'Rch_Evt' 
     7   144    15  6.849315068493E-009      0 'Rch_Evt' 
     7   143    17  6.849315068493E-009      0 'Rch_Evt' 
     7   143    16  6.849315068493E-009      0 'Rch_Evt' 
     8   143    15  6.849315068493E-009      0 'Rch_Evt' 
     7   142    16  6.849315068493E-009      0 'Rch_Evt' 
     8   142    15  6.849315068493E-009      0 'Rch_Evt' 