BEGIN OPTIONS
  CONTINUE
  PRINT_INPUT
END OPTIONS

BEGIN TIMING
  TDIS6 'HillslopeModel_v1.tdis'
END TIMING

BEGIN MODELS
  GWF6 'HillslopeModel_v1.nam' 'MODFLOW'
END MODELS

BEGIN EXCHANGES
END EXCHANGES

BEGIN SOLUTIONGROUP     1
  MXITER     1
  IMS6 'HillslopeModel_v1.ims' 'MODFLOW' 
END SOLUTIONGROUP

