# File generated by Flopy version 3.9.3 on 06/04/2025 at 15:40:03.
BEGIN options
  SAVE_FLOWS
  NEWTON  UNDER_RELAXATION
END options

BEGIN packages
  DRN6  mf6Model.drn  drn_0
  EVT6  mf6Model.evta  evta_0
  RCH6  mf6Model.rcha  rcha_0
  STO6  mf6Model.sto  sto
  NPF6  mf6Model.npf  npf
  IC6  mf6Model.ic  ic
  DISV6  mf6Model.disv  disv
  OC6  mf6Model.oc  oc
END packages

