# File generated by Flopy version 3.9.2 on 05/22/2025 at 14:26:27.
BEGIN options
  READASARRAYS
END options

BEGIN period  1
  recharge
    CONSTANT       0.00400000
END period  1

