# File generated by Flopy version 3.9.2 on 05/22/2025 at 14:49:41.
BEGIN options
  PRINT_OPTION  all
END options

BEGIN linear
  INNER_MAXIMUM  100
END linear

