# File generated by Flopy version 3.9.2 on 05/22/2025 at 14:49:41.
BEGIN options
END options

BEGIN dimensions
  NPER  1
END dimensions

BEGIN perioddata
       1.00000000  1       1.00000000
END perioddata

