# File generated by Flopy version 3.9.2 on 05/22/2025 at 14:49:41.
BEGIN options
END options

BEGIN timing
  TDIS6  ex-gwf-toth.tdis
END timing

BEGIN models
  gwf6  toth.nam  toth
END models

BEGIN exchanges
END exchanges

BEGIN solutiongroup  1
  ims6  ex-gwf-toth.ims  toth
END solutiongroup  1

