# File generated by Flopy version 3.9.2 on 05/22/2025 at 14:49:41.
BEGIN options
  BUDGET  FILEOUT  toth.bud
  HEAD  FILEOUT  toth.hds
END options

BEGIN period  1
  SAVE  head  all
  SAVE  budget  all
  PRINT  head  all
  PRINT  budget  all
END period  1

