# File generated by Flopy version 3.9.2 on 05/22/2025 at 14:49:41.
BEGIN options
  SAVE_FLOWS
END options

BEGIN packages
  dis6  toth.dis  dis
  ic6  toth.ic  ic
  npf6  toth.npf  npf
  chd6  toth.chd  chd_0
  oc6  toth.oc  oc
END packages

