# File generated by Flopy version 3.9.2 on 05/22/2025 at 14:49:41.
BEGIN options
END options

BEGIN griddata
  strt
    CONSTANT   10000.00000000
END griddata

