# File generated by Flopy version 3.9.2 on 05/22/2025 at 14:26:27.
BEGIN options
  SAVE_FLOWS
END options

BEGIN packages
  dis6  ex-gwf-bcf2ss.dis  dis
  npf6  ex-gwf-bcf2ss.npf  npf
  ic6  ex-gwf-bcf2ss.ic  ic
  riv6  ex-gwf-bcf2ss.riv  riv_0
  wel6  ex-gwf-bcf2ss.wel  wel_0
  rch6  ex-gwf-bcf2ss.rcha  rcha_0
  oc6  ex-gwf-bcf2ss.oc  oc
END packages

