# File generated by Flopy version 3.9.2 on 05/22/2025 at 14:26:27.
BEGIN options
  TIME_UNITS  days
END options

BEGIN dimensions
  NPER  2
END dimensions

BEGIN perioddata
       1.00000000  1       1.00000000
       1.00000000  1       1.00000000
END perioddata

