# File generated by Flopy version 3.9.2 on 05/21/2025 at 11:13:54.
BEGIN options
  BUDGET  FILEOUT  ex-gwf-twri01.cbc
  HEAD  FILEOUT  ex-gwf-twri01.hds
END options

BEGIN period  1
  SAVE  head  all
  SAVE  budget  all
END period  1

