# File generated by Flopy version 3.9.2 on 05/21/2025 at 11:13:54.
BEGIN options
  SAVE_FLOWS
END options

BEGIN packages
  dis6  ex-gwf-twri01.dis  dis
  npf6  ex-gwf-twri01.npf  npf
  ic6  ex-gwf-twri01.ic  ic
  chd6  ex-gwf-twri01.chd  chd_0
  drn6  ex-gwf-twri01.drn  drn_0
  wel6  ex-gwf-twri01.wel  wel_0
  rch6  ex-gwf-twri01.rcha  rcha_0
  oc6  ex-gwf-twri01.oc  oc
END packages

