# File generated by Flopy version 3.9.2 on 05/21/2025 at 11:13:54.
BEGIN options
  READASARRAYS
END options

BEGIN period  1
  recharge
    CONSTANT  3.00000000E-08
END period  1

