# File generated by Flopy version 3.9.2 on 05/22/2025 at 14:26:27.
BEGIN options
END options

BEGIN dimensions
  MAXBOUND  2
END dimensions

BEGIN period  2
  2 3 4 -3.50000000E+04
  2 8 4 -3.50000000E+04
END period  2

