# File generated by Flopy version 3.9.2 on 05/22/2025 at 14:26:27.
BEGIN options
END options

BEGIN timing
  TDIS6  ex-gwf-bcf2ss.tdis
END timing

BEGIN models
  gwf6  ex-gwf-bcf2ss.nam  ex-gwf-bcf2ss
END models

BEGIN exchanges
END exchanges

BEGIN solutiongroup  1
  ims6  ex-gwf-bcf2ss.ims  ex-gwf-bcf2ss
END solutiongroup  1

