# File generated by Flopy version 3.9.0.dev2 on 12/19/2024 at 19:46:25.
BEGIN options
END options

BEGIN dimensions
  MAXBOUND  2
END dimensions

BEGIN period  2
  2 3 4 -3.50000000E+04
  2 8 4 -3.50000000E+04
END period  2

