# File generated by Flopy version 3.9.0.dev2 on 12/19/2024 at 19:46:25.
BEGIN options
  BUDGET  FILEOUT  ex-gwf-bcf2ss.cbc
  HEAD  FILEOUT  ex-gwf-bcf2ss.hds
END options

BEGIN period  1
  SAVE  HEAD  ALL
  SAVE  BUDGET  ALL
END period  1

