# File generated by Flopy version 3.9.0.dev2 on 12/19/2024 at 19:46:25.
BEGIN options
  READASARRAYS
END options

BEGIN period  1
  recharge
    CONSTANT       0.00400000
END period  1

