# File generated by Flopy version 3.9.0.dev2 on 12/19/2024 at 19:46:25.
BEGIN options
END options

BEGIN griddata
  strt
    CONSTANT       0.00000000
END griddata

