# File generated by Flopy version 3.9.0.dev2 on 12/19/2024 at 19:46:25.
BEGIN options
END options

BEGIN timing
  TDIS6  ex-gwf-bcf2ss.tdis
END timing

BEGIN models
  gwf6  ex-gwf-bcf2ss.nam  ex-gwf-bcf2ss
END models

BEGIN exchanges
END exchanges

BEGIN solutiongroup  1
  ims6  ex-gwf-bcf2ss.ims  ex-gwf-bcf2ss
END solutiongroup  1

