# File generated by Flopy version 3.9.2 on 05/22/2025 at 14:39:43.
BEGIN options
END options

BEGIN griddata
  strt
    CONSTANT       0.00000000
END griddata

