# File generated by Flopy version 3.9.2 on 05/22/2025 at 14:39:43.
BEGIN options
  READASARRAYS
END options

BEGIN period  1
  recharge
    CONSTANT  3.00000000E-08
END period  1

