# File generated by Flopy version 3.9.2 on 04/07/2025 at 08:54:12.
BEGIN options
  TIME_UNITS  days
END options

BEGIN dimensions
  NPER  1
END dimensions

BEGIN perioddata
    1000.00000000  1       1.00000000
END perioddata

