# File generated by Flopy version 3.9.2 on 04/07/2025 at 08:54:12.
BEGIN options
  READASARRAYS
END options

BEGIN period  1
  recharge
    CONSTANT  6.34195840E-09
END period  1

