# File generated by Flopy version 3.9.2 on 04/07/2025 at 08:54:12.
BEGIN options
END options

BEGIN timing
  TDIS6  mf6Model.tdis
END timing

BEGIN models
  gwf6  mf6Model.nam  mf6Model
END models

BEGIN exchanges
END exchanges

BEGIN solutiongroup  1
  ims6  mf6Model.ims  mf6Model
END solutiongroup  1

