# File generated by Flopy version 3.9.2 on 05/22/2025 at 16:05:25.
BEGIN options
  BUDGET  FILEOUT  ex-gwf-advtidal.cbc
  HEAD  FILEOUT  ex-gwf-advtidal.hds
END options

BEGIN period  1
  SAVE  head  all
  SAVE  budget  all
END period  1

