# File generated by Flopy version 3.9.2 on 05/22/2025 at 16:05:25.
BEGIN options
END options

BEGIN continuous  FILEOUT  ex-gwf-advtidal.ghb.obs.csv
  ghb_2_6_10  ghb  2 6 10
  ghb_3_6_10  ghb  3 6 10
  estuary2  ghb  estuary-l2
  estuary3  ghb  estuary-l3
END continuous  FILEOUT  ex-gwf-advtidal.ghb.obs.csv

