# File generated by Flopy version 3.9.2 on 05/22/2025 at 16:05:25.
BEGIN options
END options

BEGIN griddata
  strt
    CONSTANT      50.00000000
END griddata

