# File generated by Flopy version 3.9.3 on 06/04/2025 at 15:58:52.
BEGIN options
  READASARRAYS
END options

BEGIN period  1
  recharge
    CONSTANT  6.34195840E-09
END period  1

