# File generated by Flopy version 3.9.3 on 06/04/2025 at 15:58:52.
BEGIN options
  COMPLEXITY  complex
END options

BEGIN nonlinear
  OUTER_DVCLOSE       0.10000000
  OUTER_MAXIMUM  150
  BACKTRACKING_NUMBER  20
END nonlinear

BEGIN linear
  INNER_MAXIMUM  50
  INNER_DVCLOSE  1.00000000E-04
  LINEAR_ACCELERATION  bicgstab
END linear

