# File generated by Flopy version 3.9.2 on 04/15/2025 at 14:59:23.
BEGIN options
  COMPLEXITY  complex
END options

BEGIN nonlinear
  OUTER_MAXIMUM  50
END nonlinear

BEGIN linear
  INNER_MAXIMUM  30
  LINEAR_ACCELERATION  bicgstab
END linear

