# File generated by Flopy version 3.9.2 on 04/15/2025 at 14:59:23.
BEGIN options
  TIME_UNITS  days
END options

BEGIN dimensions
  NPER  1
END dimensions

BEGIN perioddata
    1000.00000000  1       1.00000000
END perioddata

