# File generated by Flopy version 3.9.2 on 04/15/2025 at 14:59:23.
BEGIN options
  READASARRAYS
END options

BEGIN period  1
  recharge
    CONSTANT  6.34195840E-09
END period  1

