# File generated by Flopy version 3.9.2 on 04/15/2025 at 14:59:23.
BEGIN options
  HEAD  FILEOUT  mf6Model.hds
END options

BEGIN period  1
  SAVE  HEAD  LAST
END period  1

