# File generated by Flopy version 3.9.2 on 04/15/2025 at 14:59:23.
BEGIN options
END options

BEGIN dimensions
  MAXBOUND  1175
END dimensions

BEGIN period  1
  1 468 3778 1.00000000E-02
  1 503 3773 1.00000000E-02
  1 513 3769 1.00000000E-02
  1 518 3751 1.00000000E-02
  1 519 3751 1.00000000E-02
  1 522 3775 1.00000000E-02
  1 549 3744 1.00000000E-02
  1 553 3722 1.00000000E-02
  1 565 3706 1.00000000E-02
  1 568 3710 1.00000000E-02
  1 578 3760 1.00000000E-02
  1 581 3744 1.00000000E-02
  1 584 3731 1.00000000E-02
  1 586 3705 1.00000000E-02
  1 589 3728 1.00000000E-02
  1 592 3703 1.00000000E-02
  1 603 3699 1.00000000E-02
  1 604 3699 1.00000000E-02
  1 619 3709 1.00000000E-02
  1 620 3736 1.00000000E-02
  1 625 3694 1.00000000E-02
  1 639 3727 1.00000000E-02
  1 645 3686 1.00000000E-02
  1 654 3736 1.00000000E-02
  1 668 3751 1.00000000E-02
  1 685 3696 1.00000000E-02
  1 686 3690 1.00000000E-02
  1 688 3702 1.00000000E-02
  1 692 3738 1.00000000E-02
  1 693 3734 1.00000000E-02
  1 697 3723 1.00000000E-02
  1 699 3740 1.00000000E-02
  1 700 3742 1.00000000E-02
  1 701 3735 1.00000000E-02
  1 704 3732 1.00000000E-02
  1 705 3686 1.00000000E-02
  1 707 3743 1.00000000E-02
  1 709 3693 1.00000000E-02
  1 710 3697 1.00000000E-02
  1 714 3736 1.00000000E-02
  1 715 3732 1.00000000E-02
  1 719 3689 1.00000000E-02
  1 727 3704 1.00000000E-02
  1 728 3732 1.00000000E-02
  1 732 3702 1.00000000E-02
  1 733 3675 1.00000000E-02
  1 734 3686 1.00000000E-02
  1 735 3741 1.00000000E-02
  1 739 3678 1.00000000E-02
  1 741 3673 1.00000000E-02
  1 742 3677 1.00000000E-02
  1 745 3742 1.00000000E-02
  1 746 3677 1.00000000E-02
  1 753 3664 1.00000000E-02
  1 754 3682 1.00000000E-02
  1 757 3746 1.00000000E-02
  1 758 3756 1.00000000E-02
  1 766 3654 1.00000000E-02
  1 768 3694 1.00000000E-02
  1 779 3753 1.00000000E-02
  1 787 3749 1.00000000E-02
  1 788 3686 1.00000000E-02
  1 798 3641 1.00000000E-02
  1 814 3649 1.00000000E-02
  1 819 3778 1.00000000E-02
  1 820 3748 1.00000000E-02
  1 852 3743 1.00000000E-02
  1 865 3756 1.00000000E-02
  1 868 3753 1.00000000E-02
  1 870 3774 1.00000000E-02
  1 874 3766 1.00000000E-02
  1 877 3649 1.00000000E-02
  1 885 3765 1.00000000E-02
  1 888 3763 1.00000000E-02
  1 891 3759 1.00000000E-02
  1 895 3769 1.00000000E-02
  1 896 3772 1.00000000E-02
  1 899 3804 1.00000000E-02
  1 901 3644 1.00000000E-02
  1 903 3762 1.00000000E-02
  1 906 3767 1.00000000E-02
  1 907 3798 1.00000000E-02
  1 908 3771 1.00000000E-02
  1 911 3793 1.00000000E-02
  1 915 3784 1.00000000E-02
  1 916 3773 1.00000000E-02
  1 923 3788 1.00000000E-02
  1 925 3779 1.00000000E-02
  1 926 3794 1.00000000E-02
  1 932 3785 1.00000000E-02
  1 933 3771 1.00000000E-02
  1 934 3776 1.00000000E-02
  1 936 3786 1.00000000E-02
  1 939 3808 1.00000000E-02
  1 963 3657 1.00000000E-02
  1 964 3677 1.00000000E-02
  1 965 3657 1.00000000E-02
  1 967 3665 1.00000000E-02
  1 975 3799 1.00000000E-02
  1 981 3816 1.00000000E-02
  1 991 3870 1.00000000E-02
  1 992 3818 1.00000000E-02
  1 994 3816 1.00000000E-02
  1 996 3864 1.00000000E-02
  1 1019 3815 1.00000000E-02
  1 1023 3831 1.00000000E-02
  1 1027 3826 1.00000000E-02
  1 1029 3837 1.00000000E-02
  1 1033 3829 1.00000000E-02
  1 1037 3673 1.00000000E-02
  1 1047 3646 1.00000000E-02
  1 1058 3632 1.00000000E-02
  1 1062 3839 1.00000000E-02
  1 1065 3649 1.00000000E-02
  1 1089 3638 1.00000000E-02
  1 1104 3849 1.00000000E-02
  1 1130 3631 1.00000000E-02
  1 1136 3617 1.00000000E-02
  1 1141 3853 1.00000000E-02
  1 1146 3622 1.00000000E-02
  1 1150 3881 1.00000000E-02
  1 1152 3702 1.00000000E-02
  1 1154 3625 1.00000000E-02
  1 1155 3633 1.00000000E-02
  1 1157 3855 1.00000000E-02
  1 1159 3853 1.00000000E-02
  1 1162 3634 1.00000000E-02
  1 1171 3861 1.00000000E-02
  1 1174 3665 1.00000000E-02
  1 1185 3696 1.00000000E-02
  1 1196 3623 1.00000000E-02
  1 1221 3862 1.00000000E-02
  1 1224 3879 1.00000000E-02
  1 1236 3893 1.00000000E-02
  1 1239 3631 1.00000000E-02
  1 1241 3884 1.00000000E-02
  1 1243 3628 1.00000000E-02
  1 1245 3613 1.00000000E-02
  1 1250 3611 1.00000000E-02
  1 1255 3880 1.00000000E-02
  1 1256 3681 1.00000000E-02
  1 1259 3874 1.00000000E-02
  1 1264 3611 1.00000000E-02
  1 1268 3617 1.00000000E-02
  1 1278 3608 1.00000000E-02
  1 1288 3889 1.00000000E-02
  1 1291 3612 1.00000000E-02
  1 1293 3672 1.00000000E-02
  1 1294 3609 1.00000000E-02
  1 1298 3642 1.00000000E-02
  1 1302 3661 1.00000000E-02
  1 1316 3641 1.00000000E-02
  1 1328 3891 1.00000000E-02
  1 1334 3900 1.00000000E-02
  1 1347 3887 1.00000000E-02
  1 1360 3598 1.00000000E-02
  1 1363 3599 1.00000000E-02
  1 1372 3627 1.00000000E-02
  1 1385 3902 1.00000000E-02
  1 1386 3635 1.00000000E-02
  1 1390 3604 1.00000000E-02
  1 1392 3595 1.00000000E-02
  1 1403 3601 1.00000000E-02
  1 1404 3576 1.00000000E-02
  1 1429 3889 1.00000000E-02
  1 1438 3896 1.00000000E-02
  1 1441 3890 1.00000000E-02
  1 1453 3610 1.00000000E-02
  1 1459 3588 1.00000000E-02
  1 1460 3590 1.00000000E-02
  1 1465 3579 1.00000000E-02
  1 1474 3570 1.00000000E-02
  1 1478 3889 1.00000000E-02
  1 1480 3575 1.00000000E-02
  1 1487 3573 1.00000000E-02
  1 1492 3548 1.00000000E-02
  1 1495 3556 1.00000000E-02
  1 1500 3894 1.00000000E-02
  1 1511 3540 1.00000000E-02
  1 1515 3565 1.00000000E-02
  1 1517 3586 1.00000000E-02
  1 1534 3906 1.00000000E-02
  1 1540 3898 1.00000000E-02
  1 1544 3921 1.00000000E-02
  1 1558 3567 1.00000000E-02
  1 1567 3557 1.00000000E-02
  1 1571 3538 1.00000000E-02
  1 1575 3908 1.00000000E-02
  1 1580 3567 1.00000000E-02
  1 1583 3532 1.00000000E-02
  1 1586 3543 1.00000000E-02
  1 1597 3551 1.00000000E-02
  1 1599 3530 1.00000000E-02
  1 1601 3908 1.00000000E-02
  1 1604 3902 1.00000000E-02
  1 1607 3513 1.00000000E-02
  1 1628 3550 1.00000000E-02
  1 1639 3552 1.00000000E-02
  1 1659 3904 1.00000000E-02
  1 1672 3945 1.00000000E-02
  1 1674 3506 1.00000000E-02
  1 1678 3510 1.00000000E-02
  1 1680 3500 1.00000000E-02
  1 1682 3502 1.00000000E-02
  1 1688 3502 1.00000000E-02
  1 1693 3549 1.00000000E-02
  1 1694 3531 1.00000000E-02
  1 1695 3565 1.00000000E-02
  1 1696 3503 1.00000000E-02
  1 1697 3500 1.00000000E-02
  1 1701 3563 1.00000000E-02
  1 1707 3502 1.00000000E-02
  1 1709 3535 1.00000000E-02
  1 1711 3537 1.00000000E-02
  1 1714 3502 1.00000000E-02
  1 1715 3909 1.00000000E-02
  1 1718 3493 1.00000000E-02
  1 1719 3523 1.00000000E-02
  1 1720 3538 1.00000000E-02
  1 1721 3565 1.00000000E-02
  1 1729 3531 1.00000000E-02
  1 1731 3566 1.00000000E-02
  1 1732 3520 1.00000000E-02
  1 1737 3485 1.00000000E-02
  1 1738 3513 1.00000000E-02
  1 1743 3557 1.00000000E-02
  1 1745 3510 1.00000000E-02
  1 1748 3513 1.00000000E-02
  1 1749 3520 1.00000000E-02
  1 1759 3544 1.00000000E-02
  1 1760 3543 1.00000000E-02
  1 1765 3510 1.00000000E-02
  1 1769 3517 1.00000000E-02
  1 1782 3477 1.00000000E-02
  1 1783 3490 1.00000000E-02
  1 1812 3912 1.00000000E-02
  1 1820 3915 1.00000000E-02
  1 1824 3918 1.00000000E-02
  1 1837 3486 1.00000000E-02
  1 1860 3492 1.00000000E-02
  1 1876 3482 1.00000000E-02
  1 1877 3477 1.00000000E-02
  1 1884 3923 1.00000000E-02
  1 1886 3467 1.00000000E-02
  1 1889 3463 1.00000000E-02
  1 1898 3465 1.00000000E-02
  1 1918 3929 1.00000000E-02
  1 1941 3933 1.00000000E-02
  1 1949 3928 1.00000000E-02
  1 1966 3929 1.00000000E-02
  1 1971 3461 1.00000000E-02
  1 1982 3459 1.00000000E-02
  1 2001 3944 1.00000000E-02
  1 2002 3937 1.00000000E-02
  1 2007 3932 1.00000000E-02
  1 2017 3933 1.00000000E-02
  1 2025 3968 1.00000000E-02
  1 2047 3459 1.00000000E-02
  1 2059 3941 1.00000000E-02
  1 2071 3461 1.00000000E-02
  1 2073 3472 1.00000000E-02
  1 2077 3458 1.00000000E-02
  1 2102 3944 1.00000000E-02
  1 2123 3459 1.00000000E-02
  1 2144 3453 1.00000000E-02
  1 2145 3947 1.00000000E-02
  1 2165 3450 1.00000000E-02
  1 2200 3951 1.00000000E-02
  1 2206 3981 1.00000000E-02
  1 2227 3448 1.00000000E-02
  1 2237 3954 1.00000000E-02
  1 2238 3454 1.00000000E-02
  1 2247 3955 1.00000000E-02
  1 2254 3463 1.00000000E-02
  1 2255 3468 1.00000000E-02
  1 2257 3444 1.00000000E-02
  1 2266 3455 1.00000000E-02
  1 2276 3470 1.00000000E-02
  1 2302 3967 1.00000000E-02
  1 2311 3971 1.00000000E-02
  1 2318 3965 1.00000000E-02
  1 2326 3445 1.00000000E-02
  1 2353 3963 1.00000000E-02
  1 2356 3435 1.00000000E-02
  1 2376 3457 1.00000000E-02
  1 2377 3434 1.00000000E-02
  1 2394 3968 1.00000000E-02
  1 2415 3965 1.00000000E-02
  1 2420 3969 1.00000000E-02
  1 2423 3963 1.00000000E-02
  1 2434 3443 1.00000000E-02
  1 2452 3437 1.00000000E-02
  1 2455 3451 1.00000000E-02
  1 2461 3446 1.00000000E-02
  1 2464 3457 1.00000000E-02
  1 2466 3432 1.00000000E-02
  1 2471 3449 1.00000000E-02
  1 2483 3435 1.00000000E-02
  1 2499 3439 1.00000000E-02
  1 2501 3449 1.00000000E-02
  1 2502 3460 1.00000000E-02
  1 2508 3437 1.00000000E-02
  1 2510 3982 1.00000000E-02
  1 2516 3977 1.00000000E-02
  1 2538 4004 1.00000000E-02
  1 2543 3433 1.00000000E-02
  1 2547 3434 1.00000000E-02
  1 2554 3436 1.00000000E-02
  1 2557 3428 1.00000000E-02
  1 2566 3973 1.00000000E-02
  1 2576 3979 1.00000000E-02
  1 2577 3439 1.00000000E-02
  1 2590 3436 1.00000000E-02
  1 2593 3459 1.00000000E-02
  1 2597 3993 1.00000000E-02
  1 2599 3465 1.00000000E-02
  1 2607 3432 1.00000000E-02
  1 2623 3465 1.00000000E-02
  1 2632 3474 1.00000000E-02
  1 2647 3476 1.00000000E-02
  1 2648 3472 1.00000000E-02
  1 2660 4009 1.00000000E-02
  1 2665 4010 1.00000000E-02
  1 2675 3992 1.00000000E-02
  1 2678 3996 1.00000000E-02
  1 2680 3996 1.00000000E-02
  1 2681 3990 1.00000000E-02
  1 2683 4004 1.00000000E-02
  1 2695 3433 1.00000000E-02
  1 2708 3412 1.00000000E-02
  1 2712 3414 1.00000000E-02
  1 2713 3412 1.00000000E-02
  1 2719 3427 1.00000000E-02
  1 2720 3411 1.00000000E-02
  1 2727 3418 1.00000000E-02
  1 2728 3408 1.00000000E-02
  1 2729 3413 1.00000000E-02
  1 2730 3415 1.00000000E-02
  1 2731 3996 1.00000000E-02
  1 2732 3994 1.00000000E-02
  1 2734 3412 1.00000000E-02
  1 2736 3414 1.00000000E-02
  1 2737 3998 1.00000000E-02
  1 2739 3417 1.00000000E-02
  1 2742 3427 1.00000000E-02
  1 2744 3426 1.00000000E-02
  1 2751 3426 1.00000000E-02
  1 2753 3468 1.00000000E-02
  1 2758 3470 1.00000000E-02
  1 2764 4006 1.00000000E-02
  1 2768 3427 1.00000000E-02
  1 2770 3409 1.00000000E-02
  1 2775 3433 1.00000000E-02
  1 2777 3423 1.00000000E-02
  1 2787 3430 1.00000000E-02
  1 2791 4016 1.00000000E-02
  1 2793 3433 1.00000000E-02
  1 2795 3428 1.00000000E-02
  1 2799 3467 1.00000000E-02
  1 2805 3410 1.00000000E-02
  1 2827 4047 1.00000000E-02
  1 2843 4051 1.00000000E-02
  1 2869 3411 1.00000000E-02
  1 2870 4038 1.00000000E-02
  1 2877 3480 1.00000000E-02
  1 2879 3990 1.00000000E-02
  1 2886 3411 1.00000000E-02
  1 2895 3509 1.00000000E-02
  1 2902 3490 1.00000000E-02
  1 2909 3414 1.00000000E-02
  1 2911 4016 1.00000000E-02
  1 2919 3495 1.00000000E-02
  1 2920 3411 1.00000000E-02
  1 2921 3992 1.00000000E-02
  1 2930 3519 1.00000000E-02
  1 2933 4063 1.00000000E-02
  1 2934 4001 1.00000000E-02
  1 2939 3493 1.00000000E-02
  1 2942 3411 1.00000000E-02
  1 2944 4003 1.00000000E-02
  1 2949 3497 1.00000000E-02
  1 2954 4007 1.00000000E-02
  1 2959 4074 1.00000000E-02
  1 2966 3410 1.00000000E-02
  1 2970 3495 1.00000000E-02
  1 2974 3527 1.00000000E-02
  1 2975 3494 1.00000000E-02
  1 2980 3518 1.00000000E-02
  1 2994 4091 1.00000000E-02
  1 2997 4068 1.00000000E-02
  1 3005 4026 1.00000000E-02
  1 3006 4003 1.00000000E-02
  1 3028 3406 1.00000000E-02
  1 3029 3408 1.00000000E-02
  1 3032 3540 1.00000000E-02
  1 3035 3512 1.00000000E-02
  1 3038 4015 1.00000000E-02
  1 3041 4077 1.00000000E-02
  1 3042 4082 1.00000000E-02
  1 3044 3517 1.00000000E-02
  1 3046 4005 1.00000000E-02
  1 3053 4014 1.00000000E-02
  1 3060 3514 1.00000000E-02
  1 3062 4006 1.00000000E-02
  1 3067 4037 1.00000000E-02
  1 3073 4022 1.00000000E-02
  1 3085 3409 1.00000000E-02
  1 3086 4014 1.00000000E-02
  1 3087 4084 1.00000000E-02
  1 3090 3529 1.00000000E-02
  1 3091 4023 1.00000000E-02
  1 3093 4020 1.00000000E-02
  1 3094 4018 1.00000000E-02
  1 3098 3409 1.00000000E-02
  1 3101 4047 1.00000000E-02
  1 3105 4021 1.00000000E-02
  1 3114 4021 1.00000000E-02
  1 3119 4023 1.00000000E-02
  1 3120 4029 1.00000000E-02
  1 3125 3530 1.00000000E-02
  1 3128 4028 1.00000000E-02
  1 3132 3409 1.00000000E-02
  1 3134 4028 1.00000000E-02
  1 3143 3408 1.00000000E-02
  1 3146 3409 1.00000000E-02
  1 3153 3567 1.00000000E-02
  1 3183 4085 1.00000000E-02
  1 3190 4027 1.00000000E-02
  1 3195 4039 1.00000000E-02
  1 3204 4027 1.00000000E-02
  1 3205 3534 1.00000000E-02
  1 3220 4094 1.00000000E-02
  1 3233 3536 1.00000000E-02
  1 3236 4038 1.00000000E-02
  1 3237 3545 1.00000000E-02
  1 3239 4034 1.00000000E-02
  1 3241 4039 1.00000000E-02
  1 3243 4087 1.00000000E-02
  1 3253 3559 1.00000000E-02
  1 3255 4036 1.00000000E-02
  1 3256 4032 1.00000000E-02
  1 3266 3408 1.00000000E-02
  1 3267 4035 1.00000000E-02
  1 3269 3551 1.00000000E-02
  1 3270 3565 1.00000000E-02
  1 3272 4040 1.00000000E-02
  1 3275 3551 1.00000000E-02
  1 3277 4091 1.00000000E-02
  1 3285 4037 1.00000000E-02
  1 3293 3560 1.00000000E-02
  1 3295 3559 1.00000000E-02
  1 3302 3408 1.00000000E-02
  1 3306 3571 1.00000000E-02
  1 3308 3580 1.00000000E-02
  1 3309 3576 1.00000000E-02
  1 3316 3408 1.00000000E-02
  1 3327 3571 1.00000000E-02
  1 3335 3640 1.00000000E-02
  1 3337 3598 1.00000000E-02
  1 3352 4103 1.00000000E-02
  1 3355 4090 1.00000000E-02
  1 3360 4095 1.00000000E-02
  1 3386 4091 1.00000000E-02
  1 3390 4036 1.00000000E-02
  1 3400 3580 1.00000000E-02
  1 3403 3611 1.00000000E-02
  1 3404 3625 1.00000000E-02
  1 3413 3622 1.00000000E-02
  1 3416 3631 1.00000000E-02
  1 3425 3642 1.00000000E-02
  1 3429 4040 1.00000000E-02
  1 3431 3408 1.00000000E-02
  1 3445 3652 1.00000000E-02
  1 3447 3408 1.00000000E-02
  1 3453 3647 1.00000000E-02
  1 3457 4139 1.00000000E-02
  1 3472 4039 1.00000000E-02
  1 3482 4047 1.00000000E-02
  1 3485 3631 1.00000000E-02
  1 3486 3680 1.00000000E-02
  1 3487 4146 1.00000000E-02
  1 3491 3850 1.00000000E-02
  1 3495 4136 1.00000000E-02
  1 3496 4032 1.00000000E-02
  1 3511 3730 1.00000000E-02
  1 3512 4045 1.00000000E-02
  1 3518 3408 1.00000000E-02
  1 3523 3626 1.00000000E-02
  1 3525 3706 1.00000000E-02
  1 3527 3629 1.00000000E-02
  1 3530 3637 1.00000000E-02
  1 3533 3828 1.00000000E-02
  1 3536 3861 1.00000000E-02
  1 3539 3845 1.00000000E-02
  1 3542 3844 1.00000000E-02
  1 3553 4107 1.00000000E-02
  1 3557 4110 1.00000000E-02
  1 3559 4075 1.00000000E-02
  1 3560 4038 1.00000000E-02
  1 3569 3408 1.00000000E-02
  1 3571 4123 1.00000000E-02
  1 3572 4135 1.00000000E-02
  1 3573 4079 1.00000000E-02
  1 3574 3656 1.00000000E-02
  1 3575 3812 1.00000000E-02
  1 3585 4147 1.00000000E-02
  1 3587 4153 1.00000000E-02
  1 3591 3829 1.00000000E-02
  1 3593 4058 1.00000000E-02
  1 3594 4140 1.00000000E-02
  1 3600 3672 1.00000000E-02
  1 3601 3798 1.00000000E-02
  1 3603 4077 1.00000000E-02
  1 3604 4038 1.00000000E-02
  1 3605 4075 1.00000000E-02
  1 3606 4121 1.00000000E-02
  1 3608 4087 1.00000000E-02
  1 3610 4133 1.00000000E-02
  1 3611 3720 1.00000000E-02
  1 3617 3775 1.00000000E-02
  1 3621 4120 1.00000000E-02
  1 3627 3656 1.00000000E-02
  1 3629 3680 1.00000000E-02
  1 3634 3632 1.00000000E-02
  1 3638 3711 1.00000000E-02
  1 3639 4132 1.00000000E-02
  1 3640 4079 1.00000000E-02
  1 3641 3763 1.00000000E-02
  1 3644 3795 1.00000000E-02
  1 3647 4069 1.00000000E-02
  1 3652 3754 1.00000000E-02
  1 3656 4144 1.00000000E-02
  1 3665 3770 1.00000000E-02
  1 3666 3716 1.00000000E-02
  1 3667 3673 1.00000000E-02
  1 3668 3796 1.00000000E-02
  1 3669 3772 1.00000000E-02
  1 3672 3645 1.00000000E-02
  1 3673 3749 1.00000000E-02
  1 3675 4148 1.00000000E-02
  1 3681 4132 1.00000000E-02
  1 3685 3757 1.00000000E-02
  1 3689 4081 1.00000000E-02
  1 3695 3782 1.00000000E-02
  1 3696 3787 1.00000000E-02
  1 3700 4108 1.00000000E-02
  1 3702 3741 1.00000000E-02
  1 3705 3408 1.00000000E-02
  1 3706 3735 1.00000000E-02
  1 3725 3650 1.00000000E-02
  1 3727 3408 1.00000000E-02
  1 3735 4144 1.00000000E-02
  1 3738 3659 1.00000000E-02
  1 3747 4090 1.00000000E-02
  1 3749 3666 1.00000000E-02
  1 3759 4153 1.00000000E-02
  1 3769 4129 1.00000000E-02
  1 3770 3408 1.00000000E-02
  1 3788 3666 1.00000000E-02
  1 3820 4123 1.00000000E-02
  1 3822 4105 1.00000000E-02
  1 3842 4189 1.00000000E-02
  1 3855 4143 1.00000000E-02
  1 3859 3668 1.00000000E-02
  1 3868 3693 1.00000000E-02
  1 3872 4138 1.00000000E-02
  1 3874 4152 1.00000000E-02
  1 3875 4168 1.00000000E-02
  1 3877 3408 1.00000000E-02
  1 3881 3682 1.00000000E-02
  1 3882 3677 1.00000000E-02
  1 3886 4134 1.00000000E-02
  1 3894 3409 1.00000000E-02
  1 3897 4150 1.00000000E-02
  1 3898 3689 1.00000000E-02
  1 3906 4167 1.00000000E-02
  1 3916 3409 1.00000000E-02
  1 3924 4167 1.00000000E-02
  1 3953 3697 1.00000000E-02
  1 3967 3706 1.00000000E-02
  1 3975 4150 1.00000000E-02
  1 3983 4133 1.00000000E-02
  1 3987 4145 1.00000000E-02
  1 3991 4172 1.00000000E-02
  1 4010 3408 1.00000000E-02
  1 4017 3408 1.00000000E-02
  1 4019 3408 1.00000000E-02
  1 4020 3707 1.00000000E-02
  1 4024 3408 1.00000000E-02
  1 4036 3408 1.00000000E-02
  1 4037 3408 1.00000000E-02
  1 4041 3408 1.00000000E-02
  1 4043 4154 1.00000000E-02
  1 4048 4158 1.00000000E-02
  1 4050 3706 1.00000000E-02
  1 4057 3408 1.00000000E-02
  1 4059 3408 1.00000000E-02
  1 4062 3409 1.00000000E-02
  1 4073 3408 1.00000000E-02
  1 4074 3408 1.00000000E-02
  1 4077 3408 1.00000000E-02
  1 4082 3408 1.00000000E-02
  1 4084 3408 1.00000000E-02
  1 4087 3417 1.00000000E-02
  1 4089 4141 1.00000000E-02
  1 4091 3408 1.00000000E-02
  1 4096 3408 1.00000000E-02
  1 4101 3408 1.00000000E-02
  1 4102 3408 1.00000000E-02
  1 4118 3408 1.00000000E-02
  1 4119 3408 1.00000000E-02
  1 4122 3408 1.00000000E-02
  1 4131 3715 1.00000000E-02
  1 4146 3734 1.00000000E-02
  1 4162 4164 1.00000000E-02
  1 4170 4152 1.00000000E-02
  1 4176 4176 1.00000000E-02
  1 4182 4161 1.00000000E-02
  1 4187 3409 1.00000000E-02
  1 4191 4191 1.00000000E-02
  1 4195 4152 1.00000000E-02
  1 4197 4175 1.00000000E-02
  1 4200 4175 1.00000000E-02
  1 4203 3408 1.00000000E-02
  1 4207 3408 1.00000000E-02
  1 4209 3408 1.00000000E-02
  1 4214 3408 1.00000000E-02
  1 4227 3408 1.00000000E-02
  1 4234 3408 1.00000000E-02
  1 4245 3408 1.00000000E-02
  1 4251 3742 1.00000000E-02
  1 4254 4185 1.00000000E-02
  1 4261 4172 1.00000000E-02
  1 4262 4206 1.00000000E-02
  1 4266 3408 1.00000000E-02
  1 4275 3408 1.00000000E-02
  1 4296 3745 1.00000000E-02
  1 4323 4182 1.00000000E-02
  1 4331 4185 1.00000000E-02
  1 4344 4160 1.00000000E-02
  1 4348 3750 1.00000000E-02
  1 4349 3408 1.00000000E-02
  1 4363 3776 1.00000000E-02
  1 4367 4182 1.00000000E-02
  1 4372 3768 1.00000000E-02
  1 4389 4198 1.00000000E-02
  1 4396 3408 1.00000000E-02
  1 4399 4161 1.00000000E-02
  1 4403 4189 1.00000000E-02
  1 4404 3784 1.00000000E-02
  1 4413 3408 1.00000000E-02
  1 4415 3408 1.00000000E-02
  1 4423 3408 1.00000000E-02
  1 4430 3785 1.00000000E-02
  1 4431 3796 1.00000000E-02
  1 4435 3781 1.00000000E-02
  1 4443 3788 1.00000000E-02
  1 4460 4207 1.00000000E-02
  1 4463 4196 1.00000000E-02
  1 4465 4193 1.00000000E-02
  1 4482 4175 1.00000000E-02
  1 4490 4178 1.00000000E-02
  1 4494 4199 1.00000000E-02
  1 4518 3793 1.00000000E-02
  1 4520 3409 1.00000000E-02
  1 4525 4207 1.00000000E-02
  1 4527 4188 1.00000000E-02
  1 4533 4206 1.00000000E-02
  1 4538 3807 1.00000000E-02
  1 4542 3409 1.00000000E-02
  1 4554 4206 1.00000000E-02
  1 4556 3418 1.00000000E-02
  1 4560 3411 1.00000000E-02
  1 4567 3420 1.00000000E-02
  1 4581 3833 1.00000000E-02
  1 4587 3814 1.00000000E-02
  1 4597 4223 1.00000000E-02
  1 4605 4208 1.00000000E-02
  1 4611 4207 1.00000000E-02
  1 4630 3840 1.00000000E-02
  1 4632 4240 1.00000000E-02
  1 4649 4211 1.00000000E-02
  1 4660 4213 1.00000000E-02
  1 4668 3435 1.00000000E-02
  1 4673 4232 1.00000000E-02
  1 4676 4221 1.00000000E-02
  1 4679 3832 1.00000000E-02
  1 4681 4237 1.00000000E-02
  1 4691 3468 1.00000000E-02
  1 4695 3490 1.00000000E-02
  1 4707 3860 1.00000000E-02
  1 4708 3844 1.00000000E-02
  1 4716 3870 1.00000000E-02
  1 4736 4224 1.00000000E-02
  1 4740 4241 1.00000000E-02
  1 4746 4224 1.00000000E-02
  1 4749 4245 1.00000000E-02
  1 4760 4223 1.00000000E-02
  1 4785 4228 1.00000000E-02
  1 4786 4228 1.00000000E-02
  1 4796 3508 1.00000000E-02
  1 4804 4231 1.00000000E-02
  1 4808 3873 1.00000000E-02
  1 4810 4233 1.00000000E-02
  1 4813 3511 1.00000000E-02
  1 4824 3898 1.00000000E-02
  1 4831 3516 1.00000000E-02
  1 4839 3899 1.00000000E-02
  1 4858 3941 1.00000000E-02
  1 4867 4260 1.00000000E-02
  1 4868 4252 1.00000000E-02
  1 4871 4240 1.00000000E-02
  1 4875 4277 1.00000000E-02
  1 4892 4237 1.00000000E-02
  1 4895 4281 1.00000000E-02
  1 4901 4247 1.00000000E-02
  1 4912 3500 1.00000000E-02
  1 4927 3911 1.00000000E-02
  1 4930 4269 1.00000000E-02
  1 4937 4236 1.00000000E-02
  1 4939 3947 1.00000000E-02
  1 4948 3511 1.00000000E-02
  1 4952 3927 1.00000000E-02
  1 4953 4250 1.00000000E-02
  1 4962 3949 1.00000000E-02
  1 4964 3929 1.00000000E-02
  1 4971 3522 1.00000000E-02
  1 4977 3514 1.00000000E-02
  1 4991 3946 1.00000000E-02
  1 5003 4282 1.00000000E-02
  1 5014 4271 1.00000000E-02
  1 5015 4258 1.00000000E-02
  1 5021 4266 1.00000000E-02
  1 5034 4268 1.00000000E-02
  1 5035 4336 1.00000000E-02
  1 5042 4292 1.00000000E-02
  1 5047 3510 1.00000000E-02
  1 5053 3947 1.00000000E-02
  1 5059 3508 1.00000000E-02
  1 5065 3510 1.00000000E-02
  1 5079 4272 1.00000000E-02
  1 5100 3961 1.00000000E-02
  1 5102 4278 1.00000000E-02
  1 5103 4289 1.00000000E-02
  1 5113 3508 1.00000000E-02
  1 5116 3966 1.00000000E-02
  1 5123 3514 1.00000000E-02
  1 5134 4006 1.00000000E-02
  1 5136 3996 1.00000000E-02
  1 5142 4049 1.00000000E-02
  1 5149 3997 1.00000000E-02
  1 5151 4280 1.00000000E-02
  1 5161 4278 1.00000000E-02
  1 5168 4286 1.00000000E-02
  1 5187 3998 1.00000000E-02
  1 5188 3517 1.00000000E-02
  1 5195 4289 1.00000000E-02
  1 5198 4301 1.00000000E-02
  1 5215 3516 1.00000000E-02
  1 5219 3993 1.00000000E-02
  1 5224 4311 1.00000000E-02
  1 5228 4287 1.00000000E-02
  1 5229 3996 1.00000000E-02
  1 5236 4005 1.00000000E-02
  1 5238 4298 1.00000000E-02
  1 5242 3519 1.00000000E-02
  1 5244 4311 1.00000000E-02
  1 5251 4001 1.00000000E-02
  1 5253 4307 1.00000000E-02
  1 5258 3518 1.00000000E-02
  1 5262 4007 1.00000000E-02
  1 5267 4026 1.00000000E-02
  1 5270 4301 1.00000000E-02
  1 5275 3528 1.00000000E-02
  1 5283 3525 1.00000000E-02
  1 5292 4021 1.00000000E-02
  1 5303 4060 1.00000000E-02
  1 5310 4305 1.00000000E-02
  1 5318 4300 1.00000000E-02
  1 5336 4322 1.00000000E-02
  1 5343 4312 1.00000000E-02
  1 5346 4355 1.00000000E-02
  1 5347 4316 1.00000000E-02
  1 5350 4048 1.00000000E-02
  1 5352 3521 1.00000000E-02
  1 5361 4041 1.00000000E-02
  1 5369 4049 1.00000000E-02
  1 5370 4039 1.00000000E-02
  1 5372 4041 1.00000000E-02
  1 5375 4047 1.00000000E-02
  1 5385 4043 1.00000000E-02
  1 5391 4045 1.00000000E-02
  1 5400 4043 1.00000000E-02
  1 5408 4052 1.00000000E-02
  1 5410 4044 1.00000000E-02
  1 5419 4048 1.00000000E-02
  1 5420 3544 1.00000000E-02
  1 5422 4059 1.00000000E-02
  1 5425 3542 1.00000000E-02
  1 5428 4317 1.00000000E-02
  1 5430 4307 1.00000000E-02
  1 5453 3545 1.00000000E-02
  1 5455 4068 1.00000000E-02
  1 5456 4061 1.00000000E-02
  1 5504 4338 1.00000000E-02
  1 5518 4083 1.00000000E-02
  1 5525 3545 1.00000000E-02
  1 5529 3539 1.00000000E-02
  1 5535 3543 1.00000000E-02
  1 5537 4318 1.00000000E-02
  1 5540 3549 1.00000000E-02
  1 5542 4060 1.00000000E-02
  1 5553 3550 1.00000000E-02
  1 5555 3544 1.00000000E-02
  1 5560 4306 1.00000000E-02
  1 5568 4317 1.00000000E-02
  1 5570 4075 1.00000000E-02
  1 5576 3567 1.00000000E-02
  1 5583 4320 1.00000000E-02
  1 5589 3808 1.00000000E-02
  1 5596 4334 1.00000000E-02
  1 5597 4077 1.00000000E-02
  1 5600 3552 1.00000000E-02
  1 5609 3842 1.00000000E-02
  1 5644 4333 1.00000000E-02
  1 5652 4328 1.00000000E-02
  1 5653 4346 1.00000000E-02
  1 5657 4332 1.00000000E-02
  1 5669 4081 1.00000000E-02
  1 5682 4086 1.00000000E-02
  1 5688 3806 1.00000000E-02
  1 5691 3819 1.00000000E-02
  1 5692 3559 1.00000000E-02
  1 5694 4335 1.00000000E-02
  1 5697 3804 1.00000000E-02
  1 5701 3825 1.00000000E-02
  1 5703 4335 1.00000000E-02
  1 5706 3811 1.00000000E-02
  1 5709 4337 1.00000000E-02
  1 5711 4101 1.00000000E-02
  1 5715 3834 1.00000000E-02
  1 5718 3804 1.00000000E-02
  1 5721 3833 1.00000000E-02
  1 5723 3858 1.00000000E-02
  1 5724 3838 1.00000000E-02
  1 5726 3566 1.00000000E-02
  1 5729 3799 1.00000000E-02
  1 5730 3820 1.00000000E-02
  1 5732 4096 1.00000000E-02
  1 5734 4100 1.00000000E-02
  1 5742 4338 1.00000000E-02
  1 5743 3880 1.00000000E-02
  1 5752 3569 1.00000000E-02
  1 5759 3768 1.00000000E-02
  1 5763 3845 1.00000000E-02
  1 5766 4107 1.00000000E-02
  1 5770 3895 1.00000000E-02
  1 5775 3800 1.00000000E-02
  1 5776 3872 1.00000000E-02
  1 5777 3888 1.00000000E-02
  1 5780 3871 1.00000000E-02
  1 5781 3577 1.00000000E-02
  1 5786 3574 1.00000000E-02
  1 5791 3856 1.00000000E-02
  1 5798 3856 1.00000000E-02
  1 5803 3894 1.00000000E-02
  1 5804 3881 1.00000000E-02
  1 5812 4106 1.00000000E-02
  1 5819 4138 1.00000000E-02
  1 5820 4138 1.00000000E-02
  1 5826 4106 1.00000000E-02
  1 5827 4111 1.00000000E-02
  1 5834 4344 1.00000000E-02
  1 5837 4343 1.00000000E-02
  1 5843 4337 1.00000000E-02
  1 5853 4341 1.00000000E-02
  1 5866 3571 1.00000000E-02
  1 5870 3765 1.00000000E-02
  1 5872 4341 1.00000000E-02
  1 5875 3841 1.00000000E-02
  1 5878 3857 1.00000000E-02
  1 5880 3596 1.00000000E-02
  1 5888 3912 1.00000000E-02
  1 5893 3700 1.00000000E-02
  1 5894 3891 1.00000000E-02
  1 5902 3900 1.00000000E-02
  1 5903 3587 1.00000000E-02
  1 5904 3714 1.00000000E-02
  1 5908 3842 1.00000000E-02
  1 5912 3721 1.00000000E-02
  1 5914 3612 1.00000000E-02
  1 5919 3701 1.00000000E-02
  1 5921 3761 1.00000000E-02
  1 5924 3924 1.00000000E-02
  1 5925 4112 1.00000000E-02
  1 5934 3643 1.00000000E-02
  1 5935 3855 1.00000000E-02
  1 5938 3615 1.00000000E-02
  1 5939 3699 1.00000000E-02
  1 5941 3911 1.00000000E-02
  1 5944 3726 1.00000000E-02
  1 5950 3748 1.00000000E-02
  1 5956 4129 1.00000000E-02
  1 5957 3914 1.00000000E-02
  1 5959 3760 1.00000000E-02
  1 5961 3763 1.00000000E-02
  1 5963 3939 1.00000000E-02
  1 5965 3745 1.00000000E-02
  1 5967 4349 1.00000000E-02
  1 5973 3918 1.00000000E-02
  1 5974 3934 1.00000000E-02
  1 5976 3741 1.00000000E-02
  1 5978 3928 1.00000000E-02
  1 5979 3945 1.00000000E-02
  1 5986 4130 1.00000000E-02
  1 5991 4128 1.00000000E-02
  1 5996 3770 1.00000000E-02
  1 5998 3948 1.00000000E-02
  1 6015 3950 1.00000000E-02
  1 6037 3958 1.00000000E-02
  1 6042 4131 1.00000000E-02
  1 6060 4136 1.00000000E-02
  1 6061 4138 1.00000000E-02
  1 6073 4356 1.00000000E-02
  1 6076 4348 1.00000000E-02
  1 6082 4356 1.00000000E-02
  1 6098 4358 1.00000000E-02
  1 6100 4351 1.00000000E-02
  1 6125 3965 1.00000000E-02
  1 6134 4360 1.00000000E-02
  1 6142 4143 1.00000000E-02
  1 6144 3991 1.00000000E-02
  1 6146 4008 1.00000000E-02
  1 6149 3974 1.00000000E-02
  1 6151 4148 1.00000000E-02
  1 6163 4146 1.00000000E-02
  1 6165 3985 1.00000000E-02
  1 6166 4024 1.00000000E-02
  1 6171 4162 1.00000000E-02
  1 6175 3992 1.00000000E-02
  1 6180 4365 1.00000000E-02
  1 6185 4162 1.00000000E-02
  1 6186 4372 1.00000000E-02
  1 6188 4179 1.00000000E-02
  1 6195 4002 1.00000000E-02
  1 6203 4006 1.00000000E-02
  1 6208 4185 1.00000000E-02
  1 6213 4175 1.00000000E-02
  1 6224 4364 1.00000000E-02
  1 6225 4361 1.00000000E-02
  1 6226 4366 1.00000000E-02
  1 6239 4364 1.00000000E-02
  1 6267 4002 1.00000000E-02
  1 6278 4014 1.00000000E-02
  1 6280 4002 1.00000000E-02
  1 6285 4013 1.00000000E-02
  1 6298 4098 1.00000000E-02
  1 6303 4092 1.00000000E-02
  1 6304 4018 1.00000000E-02
  1 6305 4066 1.00000000E-02
  1 6308 4032 1.00000000E-02
  1 6318 4397 1.00000000E-02
  1 6319 4368 1.00000000E-02
  1 6322 4366 1.00000000E-02
  1 6333 4366 1.00000000E-02
  1 6335 4370 1.00000000E-02
  1 6338 4042 1.00000000E-02
  1 6339 4066 1.00000000E-02
  1 6341 4378 1.00000000E-02
  1 6342 4082 1.00000000E-02
  1 6346 4424 1.00000000E-02
  1 6356 4082 1.00000000E-02
  1 6357 4139 1.00000000E-02
  1 6358 4098 1.00000000E-02
  1 6359 4078 1.00000000E-02
  1 6362 4046 1.00000000E-02
  1 6368 4376 1.00000000E-02
  1 6371 4120 1.00000000E-02
  1 6372 4101 1.00000000E-02
  1 6377 4403 1.00000000E-02
  1 6383 4070 1.00000000E-02
  1 6386 4111 1.00000000E-02
  1 6390 4049 1.00000000E-02
  1 6402 4111 1.00000000E-02
  1 6409 4118 1.00000000E-02
  1 6427 4402 1.00000000E-02
  1 6433 4406 1.00000000E-02
  1 6434 4396 1.00000000E-02
  1 6446 4430 1.00000000E-02
  1 6460 4416 1.00000000E-02
  1 6466 4412 1.00000000E-02
  1 6469 4399 1.00000000E-02
  1 6471 4058 1.00000000E-02
  1 6473 4058 1.00000000E-02
  1 6474 4410 1.00000000E-02
  1 6477 4426 1.00000000E-02
  1 6479 4068 1.00000000E-02
  1 6483 4109 1.00000000E-02
  1 6491 4076 1.00000000E-02
  1 6496 4392 1.00000000E-02
  1 6498 4424 1.00000000E-02
  1 6499 4390 1.00000000E-02
  1 6509 4397 1.00000000E-02
  1 6513 4416 1.00000000E-02
  1 6516 4396 1.00000000E-02
  1 6519 4125 1.00000000E-02
  1 6534 4114 1.00000000E-02
  1 6548 4416 1.00000000E-02
  1 6565 4120 1.00000000E-02
  1 6567 4130 1.00000000E-02
  1 6574 4119 1.00000000E-02
  1 6584 4145 1.00000000E-02
  1 6585 4160 1.00000000E-02
  1 6586 4144 1.00000000E-02
  1 6607 4414 1.00000000E-02
  1 6628 4418 1.00000000E-02
  1 6650 4135 1.00000000E-02
  1 6662 4144 1.00000000E-02
  1 6671 4156 1.00000000E-02
  1 6679 4173 1.00000000E-02
  1 6680 4166 1.00000000E-02
  1 6684 4422 1.00000000E-02
  1 6717 4172 1.00000000E-02
  1 6727 4178 1.00000000E-02
  1 6736 4185 1.00000000E-02
  1 6760 4425 1.00000000E-02
  1 6786 4434 1.00000000E-02
  1 6793 4432 1.00000000E-02
  1 6813 4439 1.00000000E-02
  1 6816 4434 1.00000000E-02
  1 6817 4459 1.00000000E-02
  1 6818 4183 1.00000000E-02