# File generated by Flopy version 3.9.3 on 06/04/2025 at 16:03:51.
BEGIN options
  TIME_UNITS  days
END options

BEGIN dimensions
  NPER  1
END dimensions

BEGIN perioddata
    1000.00000000  1       1.00000000
END perioddata

