# File generated by Flopy version 3.9.3 on 06/04/2025 at 16:03:51.
BEGIN options
  COMPLEXITY  complex
END options

BEGIN nonlinear
  OUTER_MAXIMUM  50
END nonlinear

BEGIN linear
  INNER_MAXIMUM  30
  LINEAR_ACCELERATION  bicgstab
END linear

