# File generated by Flopy version 3.9.3 on 06/04/2025 at 16:03:51.
BEGIN options
END options

BEGIN timing
  TDIS6  mf6Model.tdis
END timing

BEGIN models
  gwf6  mf6Model.nam  mf6Model
END models

BEGIN exchanges
END exchanges

BEGIN solutiongroup  1
  ims6  mf6Model.ims  mf6Model
END solutiongroup  1

