# File generated by Flopy version 3.9.0.dev2 on 12/19/2024 at 19:48:24.
BEGIN options
  PRINT_OPTION  all
END options

BEGIN linear
  INNER_MAXIMUM  100
END linear

