# File generated by Flopy version 3.9.0.dev2 on 12/19/2024 at 19:48:24.
BEGIN options
  SAVE_FLOWS
END options

BEGIN packages
  DIS6  toth.dis  dis
  IC6  toth.ic  ic
  NPF6  toth.npf  npf
  CHD6  toth.chd  chd_0
  OC6  toth.oc  oc
END packages

