# File generated by Flopy version 3.9.0.dev2 on 12/19/2024 at 19:48:24.
BEGIN options
END options

BEGIN griddata
  strt
    CONSTANT   10000.00000000
END griddata

