# File generated by Flopy version 3.9.0.dev2 on 12/19/2024 at 19:48:24.
BEGIN options
  BUDGET  FILEOUT  toth.bud
  HEAD  FILEOUT  toth.hds
END options

BEGIN period  1
  SAVE  HEAD  ALL
  SAVE  BUDGET  ALL
  PRINT  HEAD  ALL
  PRINT  BUDGET  ALL
END period  1

