# File generated by Flopy version 3.9.3 on 06/04/2025 at 15:58:52.
BEGIN options
  TIME_UNITS  seconds
END options

BEGIN dimensions
  NPER  6
END dimensions

BEGIN perioddata
       1.00000000  1       1.00000000
  1.26144000E+08  1       1.00000000
  1.26144000E+08  1       1.00000000
  1.26144000E+08  1       1.00000000
  1.26144000E+08  1       1.00000000
  1.26144000E+08  1       1.00000000
END perioddata

