# File generated by Flopy version 3.9.3 on 06/04/2025 at 15:58:52.
BEGIN options
END options

BEGIN dimensions
  MAXBOUND  1725
END dimensions

BEGIN period  1
  1 2050 1802 1.00000000E-02
  1 4102 1816 1.00000000E-02
  1 6151 1970 1.00000000E-02
  1 4104 1813 1.00000000E-02
  1 6153 1974 1.00000000E-02
  1 4106 1831 1.00000000E-02
  1 2054 1735 1.00000000E-02
  1 9 1633 1.00000000E-02
  1 6157 1969 1.00000000E-02
  1 4110 1956 1.00000000E-02
  1 6158 1919 1.00000000E-02
  1 11 1632 1.00000000E-02
  1 2065 1803 1.00000000E-02
  1 13 1636 1.00000000E-02
  1 8211 2259 1.00000000E-02
  1 8212 2261 1.00000000E-02
  1 2069 1764 1.00000000E-02
  1 8215 2126 1.00000000E-02
  1 2074 1810 1.00000000E-02
  1 6171 1982 1.00000000E-02
  1 6174 1977 1.00000000E-02
  1 8224 2256 1.00000000E-02
  1 8225 2131 1.00000000E-02
  1 2081 1734 1.00000000E-02
  1 33 1626 1.00000000E-02
  1 6183 1984 1.00000000E-02
  1 2087 1761 1.00000000E-02
  1 6185 1986 1.00000000E-02
  1 41 1629 1.00000000E-02
  1 6187 1980 1.00000000E-02
  1 42 1622 1.00000000E-02
  1 2088 1753 1.00000000E-02
  1 8238 2257 1.00000000E-02
  1 46 1629 1.00000000E-02
  1 2089 1757 1.00000000E-02
  1 49 1629 1.00000000E-02
  1 2099 1804 1.00000000E-02
  1 6195 1925 1.00000000E-02
  1 53 1627 1.00000000E-02
  1 2103 1733 1.00000000E-02
  1 6201 1924 1.00000000E-02
  1 8253 2130 1.00000000E-02
  1 63 1628 1.00000000E-02
  1 6208 1982 1.00000000E-02
  1 2111 1735 1.00000000E-02
  1 4162 1959 1.00000000E-02
  1 2114 1751 1.00000000E-02
  1 4164 1948 1.00000000E-02
  1 6213 1985 1.00000000E-02
  1 64 1632 1.00000000E-02
  1 71 1634 1.00000000E-02
  1 8267 2262 1.00000000E-02
  1 2124 1806 1.00000000E-02
  1 75 1636 1.00000000E-02
  1 8272 2135 1.00000000E-02
  1 4176 1821 1.00000000E-02
  1 2129 1733 1.00000000E-02
  1 4178 1817 1.00000000E-02
  1 6228 1924 1.00000000E-02
  1 2132 1743 1.00000000E-02
  1 6230 1985 1.00000000E-02
  1 8279 2263 1.00000000E-02
  1 4184 1953 1.00000000E-02
  1 4182 1830 1.00000000E-02
  1 8282 2153 1.00000000E-02
  1 2139 1805 1.00000000E-02
  1 6236 1983 1.00000000E-02
  1 2133 1751 1.00000000E-02
  1 2135 1738 1.00000000E-02
  1 2143 1815 1.00000000E-02
  1 6239 1926 1.00000000E-02
  1 4193 1967 1.00000000E-02
  1 98 1637 1.00000000E-02
  1 2142 1731 1.00000000E-02
  1 92 1642 1.00000000E-02
  1 2149 1736 1.00000000E-02
  1 103 1653 1.00000000E-02
  1 2153 1806 1.00000000E-02
  1 8299 2267 1.00000000E-02
  1 4204 1963 1.00000000E-02
  1 2158 1807 1.00000000E-02
  1 2160 1737 1.00000000E-02
  1 113 1643 1.00000000E-02
  1 6259 1988 1.00000000E-02
  1 2164 1819 1.00000000E-02
  1 8309 2156 1.00000000E-02
  1 8311 2266 1.00000000E-02
  1 120 1659 1.00000000E-02
  1 2169 1738 1.00000000E-02
  1 6267 1927 1.00000000E-02
  1 2173 1733 1.00000000E-02
  1 8318 2161 1.00000000E-02
  1 2175 1811 1.00000000E-02
  1 126 1643 1.00000000E-02
  1 2179 1731 1.00000000E-02
  1 6277 2069 1.00000000E-02
  1 8326 2269 1.00000000E-02
  1 2182 1739 1.00000000E-02
  1 139 1660 1.00000000E-02
  1 6284 1927 1.00000000E-02
  1 140 1644 1.00000000E-02
  1 6290 1990 1.00000000E-02
  1 2195 1815 1.00000000E-02
  1 146 1651 1.00000000E-02
  1 147 1640 1.00000000E-02
  1 8343 2283 1.00000000E-02
  1 4249 1820 1.00000000E-02
  1 2203 1827 1.00000000E-02
  1 156 1642 1.00000000E-02
  1 4253 1833 1.00000000E-02
  1 2206 1812 1.00000000E-02
  1 8351 2163 1.00000000E-02
  1 4256 1970 1.00000000E-02
  1 4257 1961 1.00000000E-02
  1 2208 1746 1.00000000E-02
  1 4255 1819 1.00000000E-02
  1 158 1643 1.00000000E-02
  1 165 1645 1.00000000E-02
  1 6311 2060 1.00000000E-02
  1 6313 1993 1.00000000E-02
  1 170 1640 1.00000000E-02
  1 8363 2183 1.00000000E-02
  1 171 1640 1.00000000E-02
  1 179 1645 1.00000000E-02
  1 4276 1975 1.00000000E-02
  1 8376 2288 1.00000000E-02
  1 6328 1927 1.00000000E-02
  1 184 1647 1.00000000E-02
  1 4283 1978 1.00000000E-02
  1 6333 1993 1.00000000E-02
  1 6334 2054 1.00000000E-02
  1 6335 1999 1.00000000E-02
  1 2238 1816 1.00000000E-02
  1 8381 2191 1.00000000E-02
  1 2239 1747 1.00000000E-02
  1 4291 1822 1.00000000E-02
  1 6340 2036 1.00000000E-02
  1 8389 2293 1.00000000E-02
  1 196 1651 1.00000000E-02
  1 6343 2049 1.00000000E-02
  1 6344 2064 1.00000000E-02
  1 8392 2196 1.00000000E-02
  1 4298 1836 1.00000000E-02
  1 2245 1737 1.00000000E-02
  1 4302 1822 1.00000000E-02
  1 2256 1815 1.00000000E-02
  1 2257 1822 1.00000000E-02
  1 209 1644 1.00000000E-02
  1 6357 2000 1.00000000E-02
  1 2262 1748 1.00000000E-02
  1 2261 1738 1.00000000E-02
  1 6361 2062 1.00000000E-02
  1 8410 2197 1.00000000E-02
  1 8411 2295 1.00000000E-02
  1 2268 1830 1.00000000E-02
  1 221 1674 1.00000000E-02
  1 6367 2037 1.00000000E-02
  1 6368 2030 1.00000000E-02
  1 2271 1832 1.00000000E-02
  1 2273 1814 1.00000000E-02
  1 6371 1933 1.00000000E-02
  1 223 1653 1.00000000E-02
  1 6373 2003 1.00000000E-02
  1 2278 1817 1.00000000E-02
  1 6377 2030 1.00000000E-02
  1 8426 2301 1.00000000E-02
  1 235 1641 1.00000000E-02
  1 237 1652 1.00000000E-02
  1 6382 2021 1.00000000E-02
  1 6384 1997 1.00000000E-02
  1 2292 1750 1.00000000E-02
  1 8438 2308 1.00000000E-02
  1 2295 1739 1.00000000E-02
  1 4344 1974 1.00000000E-02
  1 249 1671 1.00000000E-02
  1 6397 2011 1.00000000E-02
  1 6399 2067 1.00000000E-02
  1 4353 1956 1.00000000E-02
  1 4354 1835 1.00000000E-02
  1 2307 1830 1.00000000E-02
  1 6404 2001 1.00000000E-02
  1 2308 1820 1.00000000E-02
  1 6406 2020 1.00000000E-02
  1 2310 1836 1.00000000E-02
  1 259 1656 1.00000000E-02
  1 262 1642 1.00000000E-02
  1 6410 1936 1.00000000E-02
  1 8460 2306 1.00000000E-02
  1 268 1681 1.00000000E-02
  1 6418 2067 1.00000000E-02
  1 6419 2013 1.00000000E-02
  1 4370 1984 1.00000000E-02
  1 2322 1740 1.00000000E-02
  1 4376 1825 1.00000000E-02
  1 6425 2015 1.00000000E-02
  1 280 1655 1.00000000E-02
  1 4377 1823 1.00000000E-02
  1 283 1643 1.00000000E-02
  1 4382 1954 1.00000000E-02
  1 8479 2311 1.00000000E-02
  1 2335 1839 1.00000000E-02
  1 2338 1834 1.00000000E-02
  1 4386 1839 1.00000000E-02
  1 2339 1821 1.00000000E-02
  1 8488 2316 1.00000000E-02
  1 296 1679 1.00000000E-02
  1 299 1657 1.00000000E-02
  1 6448 2073 1.00000000E-02
  1 8496 2327 1.00000000E-02
  1 6450 2001 1.00000000E-02
  1 8504 2328 1.00000000E-02
  1 312 1650 1.00000000E-02
  1 314 1656 1.00000000E-02
  1 2364 1837 1.00000000E-02
  1 6462 2008 1.00000000E-02
  1 2367 1745 1.00000000E-02
  1 4416 1839 1.00000000E-02
  1 320 1677 1.00000000E-02
  1 2370 1840 1.00000000E-02
  1 4419 1988 1.00000000E-02
  1 6467 1939 1.00000000E-02
  1 6469 2077 1.00000000E-02
  1 2374 1842 1.00000000E-02
  1 2375 1827 1.00000000E-02
  1 8523 2333 1.00000000E-02
  1 2384 1835 1.00000000E-02
  1 8535 2346 1.00000000E-02
  1 4443 1954 1.00000000E-02
  1 8539 2352 1.00000000E-02
  1 2397 1827 1.00000000E-02
  1 6491 1940 1.00000000E-02
  1 2400 1845 1.00000000E-02
  1 4448 1826 1.00000000E-02
  1 2402 1840 1.00000000E-02
  1 8547 2360 1.00000000E-02
  1 356 1663 1.00000000E-02
  1 4454 1827 1.00000000E-02
  1 4458 1841 1.00000000E-02
  1 362 1719 1.00000000E-02
  1 2411 1746 1.00000000E-02
  1 2413 1841 1.00000000E-02
  1 8557 2366 1.00000000E-02
  1 6511 2086 1.00000000E-02
  1 8559 2365 1.00000000E-02
  1 365 1654 1.00000000E-02
  1 6514 2102 1.00000000E-02
  1 6516 2006 1.00000000E-02
  1 373 1668 1.00000000E-02
  1 6518 1946 1.00000000E-02
  1 2428 1844 1.00000000E-02
  1 380 1684 1.00000000E-02
  1 383 1657 1.00000000E-02
  1 387 1661 1.00000000E-02
  1 8580 2371 1.00000000E-02
  1 388 1691 1.00000000E-02
  1 6534 2110 1.00000000E-02
  1 2437 1747 1.00000000E-02
  1 8585 2380 1.00000000E-02
  1 393 1691 1.00000000E-02
  1 2444 1827 1.00000000E-02
  1 396 1692 1.00000000E-02
  1 398 1685 1.00000000E-02
  1 8593 2382 1.00000000E-02
  1 6545 2009 1.00000000E-02
  1 405 1688 1.00000000E-02
  1 408 1669 1.00000000E-02
  1 6553 1948 1.00000000E-02
  1 8602 2388 1.00000000E-02
  1 409 1674 1.00000000E-02
  1 2457 1749 1.00000000E-02
  1 2462 1843 1.00000000E-02
  1 2466 1843 1.00000000E-02
  1 8611 2397 1.00000000E-02
  1 6568 2106 1.00000000E-02
  1 425 1658 1.00000000E-02
  1 8620 2397 1.00000000E-02
  1 4524 1828 1.00000000E-02
  1 429 1680 1.00000000E-02
  1 6575 2016 1.00000000E-02
  1 431 1673 1.00000000E-02
  1 6585 1952 1.00000000E-02
  1 6586 2113 1.00000000E-02
  1 8634 2412 1.00000000E-02
  1 2490 1845 1.00000000E-02
  1 443 1679 1.00000000E-02
  1 8638 2422 1.00000000E-02
  1 4542 1828 1.00000000E-02
  1 4545 1957 1.00000000E-02
  1 451 1673 1.00000000E-02
  1 2501 1837 1.00000000E-02
  1 455 1662 1.00000000E-02
  1 6601 1953 1.00000000E-02
  1 2506 1849 1.00000000E-02
  1 459 1679 1.00000000E-02
  1 458 1666 1.00000000E-02
  1 8654 2428 1.00000000E-02
  1 6606 2018 1.00000000E-02
  1 8658 2433 1.00000000E-02
  1 2517 1844 1.00000000E-02
  1 8662 2441 1.00000000E-02
  1 2518 1750 1.00000000E-02
  1 477 1664 1.00000000E-02
  1 6622 2025 1.00000000E-02
  1 2526 1835 1.00000000E-02
  1 6624 2119 1.00000000E-02
  1 2528 1849 1.00000000E-02
  1 6626 1947 1.00000000E-02
  1 481 1670 1.00000000E-02
  1 4580 1844 1.00000000E-02
  1 485 1683 1.00000000E-02
  1 484 1676 1.00000000E-02
  1 6631 1948 1.00000000E-02
  1 4585 1832 1.00000000E-02
  1 4588 1831 1.00000000E-02
  1 8686 2443 1.00000000E-02
  1 495 1667 1.00000000E-02
  1 6643 2022 1.00000000E-02
  1 8693 2445 1.00000000E-02
  1 6647 2120 1.00000000E-02
  1 503 1664 1.00000000E-02
  1 8698 2467 1.00000000E-02
  1 8700 2461 1.00000000E-02
  1 2556 1835 1.00000000E-02
  1 4606 1968 1.00000000E-02
  1 8703 2462 1.00000000E-02
  1 513 1659 1.00000000E-02
  1 4611 1852 1.00000000E-02
  1 518 1685 1.00000000E-02
  1 8714 2468 1.00000000E-02
  1 523 1662 1.00000000E-02
  1 6668 1953 1.00000000E-02
  1 525 1659 1.00000000E-02
  1 2571 1751 1.00000000E-02
  1 2575 1838 1.00000000E-02
  1 527 1664 1.00000000E-02
  1 6677 2125 1.00000000E-02
  1 8725 2477 1.00000000E-02
  1 2583 1843 1.00000000E-02
  1 8730 2486 1.00000000E-02
  1 2586 1836 1.00000000E-02
  1 2589 1851 1.00000000E-02
  1 6688 2025 1.00000000E-02
  1 545 1696 1.00000000E-02
  1 8740 2494 1.00000000E-02
  1 2596 1851 1.00000000E-02
  1 6694 2127 1.00000000E-02
  1 4647 1832 1.00000000E-02
  1 552 1662 1.00000000E-02
  1 553 1689 1.00000000E-02
  1 2600 1751 1.00000000E-02
  1 8755 2503 1.00000000E-02
  1 4660 1973 1.00000000E-02
  1 564 1661 1.00000000E-02
  1 6710 2142 1.00000000E-02
  1 6711 2131 1.00000000E-02
  1 2615 1855 1.00000000E-02
  1 6713 2146 1.00000000E-02
  1 4666 1854 1.00000000E-02
  1 2616 1854 1.00000000E-02
  1 2620 1843 1.00000000E-02
  1 6715 1965 1.00000000E-02
  1 8766 2511 1.00000000E-02
  1 576 1693 1.00000000E-02
  1 2625 1854 1.00000000E-02
  1 578 1673 1.00000000E-02
  1 6723 2144 1.00000000E-02
  1 8771 2516 1.00000000E-02
  1 4675 1835 1.00000000E-02
  1 6729 2036 1.00000000E-02
  1 2633 1752 1.00000000E-02
  1 590 1663 1.00000000E-02
  1 8783 2526 1.00000000E-02
  1 8784 2535 1.00000000E-02
  1 2642 1759 1.00000000E-02
  1 4695 1833 1.00000000E-02
  1 8793 2561 1.00000000E-02
  1 6745 1967 1.00000000E-02
  1 2651 1859 1.00000000E-02
  1 604 1683 1.00000000E-02
  1 607 1694 1.00000000E-02
  1 613 1666 1.00000000E-02
  1 6759 2149 1.00000000E-02
  1 8807 2566 1.00000000E-02
  1 2667 1852 1.00000000E-02
  1 6768 2038 1.00000000E-02
  1 8817 2572 1.00000000E-02
  1 6771 2152 1.00000000E-02
  1 629 1677 1.00000000E-02
  1 4726 1977 1.00000000E-02
  1 4728 1855 1.00000000E-02
  1 4730 1839 1.00000000E-02
  1 636 1694 1.00000000E-02
  1 6782 2163 1.00000000E-02
  1 6783 1959 1.00000000E-02
  1 639 1669 1.00000000E-02
  1 2689 1856 1.00000000E-02
  1 6786 2038 1.00000000E-02
  1 4742 1863 1.00000000E-02
  1 4744 1836 1.00000000E-02
  1 6794 1962 1.00000000E-02
  1 651 1677 1.00000000E-02
  1 4750 1859 1.00000000E-02
  1 654 1697 1.00000000E-02
  1 6802 2171 1.00000000E-02
  1 2706 1860 1.00000000E-02
  1 2708 1760 1.00000000E-02
  1 666 1698 1.00000000E-02
  1 6811 2172 1.00000000E-02
  1 672 1671 1.00000000E-02
  1 6817 2040 1.00000000E-02
  1 676 1669 1.00000000E-02
  1 678 1674 1.00000000E-02
  1 2729 1861 1.00000000E-02
  1 686 1701 1.00000000E-02
  1 4783 1839 1.00000000E-02
  1 6833 2175 1.00000000E-02
  1 2739 1860 1.00000000E-02
  1 6836 1964 1.00000000E-02
  1 6838 2048 1.00000000E-02
  1 2746 1762 1.00000000E-02
  1 4795 1976 1.00000000E-02
  1 703 1699 1.00000000E-02
  1 2752 1766 1.00000000E-02
  1 705 1677 1.00000000E-02
  1 2758 1861 1.00000000E-02
  1 4810 1841 1.00000000E-02
  1 4812 1864 1.00000000E-02
  1 724 1682 1.00000000E-02
  1 4821 1839 1.00000000E-02
  1 2780 1873 1.00000000E-02
  1 6884 1967 1.00000000E-02
  1 6885 2185 1.00000000E-02
  1 6886 2053 1.00000000E-02
  1 742 1699 1.00000000E-02
  1 2792 1870 1.00000000E-02
  1 2788 1766 1.00000000E-02
  1 4842 1980 1.00000000E-02
  1 749 1702 1.00000000E-02
  1 750 1686 1.00000000E-02
  1 6897 2189 1.00000000E-02
  1 6898 1971 1.00000000E-02
  1 2805 1773 1.00000000E-02
  1 6906 2061 1.00000000E-02
  1 4858 1843 1.00000000E-02
  1 766 1704 1.00000000E-02
  1 2814 1767 1.00000000E-02
  1 770 1702 1.00000000E-02
  1 772 1686 1.00000000E-02
  1 6922 2061 1.00000000E-02
  1 2827 1871 1.00000000E-02
  1 6929 1972 1.00000000E-02
  1 789 1701 1.00000000E-02
  1 4887 1991 1.00000000E-02
  1 4890 1872 1.00000000E-02
  1 6941 2190 1.00000000E-02
  1 4895 1845 1.00000000E-02
  1 802 1707 1.00000000E-02
  1 6958 2188 1.00000000E-02
  1 6959 2062 1.00000000E-02
  1 814 1710 1.00000000E-02
  1 816 1669 1.00000000E-02
  1 6967 2216 1.00000000E-02
  1 6968 2217 1.00000000E-02
  1 823 1712 1.00000000E-02
  1 6970 1983 1.00000000E-02
  1 6971 2194 1.00000000E-02
  1 827 1708 1.00000000E-02
  1 6973 2223 1.00000000E-02
  1 2876 1778 1.00000000E-02
  1 4927 1995 1.00000000E-02
  1 2879 1877 1.00000000E-02
  1 6982 2194 1.00000000E-02
  1 842 1700 1.00000000E-02
  1 6987 2067 1.00000000E-02
  1 6992 1982 1.00000000E-02
  1 2897 1877 1.00000000E-02
  1 4947 1848 1.00000000E-02
  1 851 1717 1.00000000E-02
  1 854 1665 1.00000000E-02
  1 7000 2214 1.00000000E-02
  1 7001 2203 1.00000000E-02
  1 4952 1843 1.00000000E-02
  1 4955 1872 1.00000000E-02
  1 7009 2226 1.00000000E-02
  1 2913 1778 1.00000000E-02
  1 868 1702 1.00000000E-02
  1 4966 1995 1.00000000E-02
  1 871 1721 1.00000000E-02
  1 2921 1782 1.00000000E-02
  1 7021 2072 1.00000000E-02
  1 2932 1890 1.00000000E-02
  1 4986 1996 1.00000000E-02
  1 4988 1849 1.00000000E-02
  1 7040 2228 1.00000000E-02
  1 4996 1875 1.00000000E-02
  1 5001 1844 1.00000000E-02
  1 908 1699 1.00000000E-02
  1 7052 1975 1.00000000E-02
  1 2958 1883 1.00000000E-02
  1 2959 1781 1.00000000E-02
  1 913 1676 1.00000000E-02
  1 7062 2228 1.00000000E-02
  1 919 1724 1.00000000E-02
  1 7064 2078 1.00000000E-02
  1 932 1747 1.00000000E-02
  1 5029 1849 1.00000000E-02
  1 7079 1975 1.00000000E-02
  1 2983 1782 1.00000000E-02
  1 937 1740 1.00000000E-02
  1 938 1737 1.00000000E-02
  1 943 1703 1.00000000E-02
  1 7088 2229 1.00000000E-02
  1 5047 1883 1.00000000E-02
  1 7098 2081 1.00000000E-02
  1 960 1725 1.00000000E-02
  1 5057 1852 1.00000000E-02
  1 3008 1784 1.00000000E-02
  1 962 1679 1.00000000E-02
  1 5061 1999 1.00000000E-02
  1 7111 1980 1.00000000E-02
  1 968 1717 1.00000000E-02
  1 7113 2226 1.00000000E-02
  1 973 1735 1.00000000E-02
  1 5072 1843 1.00000000E-02
  1 7124 2239 1.00000000E-02
  1 981 1764 1.00000000E-02
  1 5076 1883 1.00000000E-02
  1 7129 2243 1.00000000E-02
  1 7130 2082 1.00000000E-02
  1 985 1743 1.00000000E-02
  1 992 1717 1.00000000E-02
  1 994 1735 1.00000000E-02
  1 3043 1888 1.00000000E-02
  1 5092 2000 1.00000000E-02
  1 7139 1980 1.00000000E-02
  1 1001 1725 1.00000000E-02
  1 1002 1714 1.00000000E-02
  1 1003 1740 1.00000000E-02
  1 7147 2084 1.00000000E-02
  1 7148 1982 1.00000000E-02
  1 7151 2246 1.00000000E-02
  1 1010 1683 1.00000000E-02
  1 1014 1716 1.00000000E-02
  1 5111 1857 1.00000000E-02
  1 1021 1744 1.00000000E-02
  1 3074 1890 1.00000000E-02
  1 5122 1847 1.00000000E-02
  1 7174 1987 1.00000000E-02
  1 1031 1717 1.00000000E-02
  1 5129 1891 1.00000000E-02
  1 1035 1767 1.00000000E-02
  1 1037 1740 1.00000000E-02
  1 7182 2250 1.00000000E-02
  1 5136 2001 1.00000000E-02
  1 1040 1747 1.00000000E-02
  1 1041 1744 1.00000000E-02
  1 3091 1893 1.00000000E-02
  1 1044 1743 1.00000000E-02
  1 7191 2086 1.00000000E-02
  1 3101 1787 1.00000000E-02
  1 5150 1860 1.00000000E-02
  1 1060 1711 1.00000000E-02
  1 7204 1992 1.00000000E-02
  1 1061 1691 1.00000000E-02
  1 5159 1851 1.00000000E-02
  1 1064 1706 1.00000000E-02
  1 1065 1711 1.00000000E-02
  1 1067 1741 1.00000000E-02
  1 1068 1751 1.00000000E-02
  1 7214 2257 1.00000000E-02
  1 1070 1744 1.00000000E-02
  1 7221 2088 1.00000000E-02
  1 1078 1768 1.00000000E-02
  1 1077 1742 1.00000000E-02
  1 1080 1746 1.00000000E-02
  1 7231 1994 1.00000000E-02
  1 7233 2266 1.00000000E-02
  1 7236 2092 1.00000000E-02
  1 5189 1889 1.00000000E-02
  1 3140 1785 1.00000000E-02
  1 3144 1900 1.00000000E-02
  1 5194 2005 1.00000000E-02
  1 7245 2269 1.00000000E-02
  1 1102 1744 1.00000000E-02
  1 1105 1752 1.00000000E-02
  1 7253 2095 1.00000000E-02
  1 5205 1860 1.00000000E-02
  1 7255 2093 1.00000000E-02
  1 7256 1995 1.00000000E-02
  1 1114 1744 1.00000000E-02
  1 5212 1892 1.00000000E-02
  1 1123 1750 1.00000000E-02
  1 1124 1752 1.00000000E-02
  1 1127 1763 1.00000000E-02
  1 7272 2106 1.00000000E-02
  1 1128 1755 1.00000000E-02
  1 7274 2100 1.00000000E-02
  1 1130 1717 1.00000000E-02
  1 1129 1749 1.00000000E-02
  1 7278 2271 1.00000000E-02
  1 7280 2106 1.00000000E-02
  1 7282 1996 1.00000000E-02
  1 3187 1909 1.00000000E-02
  1 3193 1792 1.00000000E-02
  1 7291 2271 1.00000000E-02
  1 5243 2009 1.00000000E-02
  1 5245 1899 1.00000000E-02
  1 1147 1723 1.00000000E-02
  1 1148 1686 1.00000000E-02
  1 5251 1852 1.00000000E-02
  1 1156 1753 1.00000000E-02
  1 5252 1875 1.00000000E-02
  1 1158 1747 1.00000000E-02
  1 7303 2001 1.00000000E-02
  1 3205 1797 1.00000000E-02
  1 1166 1750 1.00000000E-02
  1 7311 2272 1.00000000E-02
  1 5264 1858 1.00000000E-02
  1 7313 2109 1.00000000E-02
  1 1170 1761 1.00000000E-02
  1 5269 1898 1.00000000E-02
  1 7319 2102 1.00000000E-02
  1 7320 2001 1.00000000E-02
  1 1178 1752 1.00000000E-02
  1 1181 1763 1.00000000E-02
  1 1182 1755 1.00000000E-02
  1 5282 1894 1.00000000E-02
  1 1187 1681 1.00000000E-02
  1 7335 2115 1.00000000E-02
  1 7336 2285 1.00000000E-02
  1 1193 1723 1.00000000E-02
  1 3241 1798 1.00000000E-02
  1 7339 2107 1.00000000E-02
  1 3244 1910 1.00000000E-02
  1 3245 1792 1.00000000E-02
  1 5295 2009 1.00000000E-02
  1 5297 1860 1.00000000E-02
  1 5300 1878 1.00000000E-02
  1 3254 1811 1.00000000E-02
  1 3255 1800 1.00000000E-02
  1 5304 1865 1.00000000E-02
  1 7353 2119 1.00000000E-02
  1 7354 2000 1.00000000E-02
  1 3260 1811 1.00000000E-02
  1 3261 1806 1.00000000E-02
  1 3262 1797 1.00000000E-02
  1 5312 1895 1.00000000E-02
  1 5316 1881 1.00000000E-02
  1 3270 1793 1.00000000E-02
  1 1223 1749 1.00000000E-02
  1 7371 2289 1.00000000E-02
  1 5327 2014 1.00000000E-02
  1 7377 2119 1.00000000E-02
  1 5334 1900 1.00000000E-02
  1 5335 1867 1.00000000E-02
  1 5341 1886 1.00000000E-02
  1 1247 1682 1.00000000E-02
  1 3296 1808 1.00000000E-02
  1 3297 1794 1.00000000E-02
  1 7396 2298 1.00000000E-02
  1 3301 1805 1.00000000E-02
  1 7398 2292 1.00000000E-02
  1 3302 1797 1.00000000E-02
  1 1257 1760 1.00000000E-02
  1 7402 2128 1.00000000E-02
  1 1259 1725 1.00000000E-02
  1 3306 1795 1.00000000E-02
  1 7405 2008 1.00000000E-02
  1 1260 1687 1.00000000E-02
  1 3311 1813 1.00000000E-02
  1 5360 2018 1.00000000E-02
  1 5366 1887 1.00000000E-02
  1 5367 1871 1.00000000E-02
  1 1273 1700 1.00000000E-02
  1 3322 1928 1.00000000E-02
  1 7420 2121 1.00000000E-02
  1 5373 1902 1.00000000E-02
  1 7423 2299 1.00000000E-02
  1 5375 1873 1.00000000E-02
  1 7425 2131 1.00000000E-02
  1 1282 1762 1.00000000E-02
  1 7426 2003 1.00000000E-02
  1 1288 1701 1.00000000E-02
  1 3344 1930 1.00000000E-02
  1 7445 2128 1.00000000E-02
  1 7446 2302 1.00000000E-02
  1 1303 1724 1.00000000E-02
  1 1309 1767 1.00000000E-02
  1 7457 2137 1.00000000E-02
  1 5412 2020 1.00000000E-02
  1 7464 2005 1.00000000E-02
  1 1325 1696 1.00000000E-02
  1 7470 2304 1.00000000E-02
  1 5432 1886 1.00000000E-02
  1 7481 2132 1.00000000E-02
  1 5435 1902 1.00000000E-02
  1 1341 1729 1.00000000E-02
  1 7491 2016 1.00000000E-02
  1 7492 2141 1.00000000E-02
  1 1349 1766 1.00000000E-02
  1 5444 1876 1.00000000E-02
  1 3397 1798 1.00000000E-02
  1 5448 2020 1.00000000E-02
  1 3396 1815 1.00000000E-02
  1 1359 1701 1.00000000E-02
  1 7504 2304 1.00000000E-02
  1 5456 1903 1.00000000E-02
  1 7506 2146 1.00000000E-02
  1 7510 2020 1.00000000E-02
  1 5464 1870 1.00000000E-02
  1 7513 2140 1.00000000E-02
  1 5465 1890 1.00000000E-02
  1 1372 1768 1.00000000E-02
  1 5469 1871 1.00000000E-02
  1 5475 1910 1.00000000E-02
  1 5477 1902 1.00000000E-02
  1 5488 1873 1.00000000E-02
  1 7537 2149 1.00000000E-02
  1 1394 1734 1.00000000E-02
  1 3443 1935 1.00000000E-02
  1 1396 1692 1.00000000E-02
  1 5493 1909 1.00000000E-02
  1 1400 1769 1.00000000E-02
  1 1401 1740 1.00000000E-02
  1 7546 2145 1.00000000E-02
  1 3451 1936 1.00000000E-02
  1 5500 1896 1.00000000E-02
  1 5496 1876 1.00000000E-02
  1 3449 1819 1.00000000E-02
  1 3456 1802 1.00000000E-02
  1 7556 2153 1.00000000E-02
  1 5512 2026 1.00000000E-02
  1 5514 1911 1.00000000E-02
  1 1422 1770 1.00000000E-02
  1 5518 1876 1.00000000E-02
  1 5525 2030 1.00000000E-02
  1 1432 1773 1.00000000E-02
  1 7576 2021 1.00000000E-02
  1 5529 1899 1.00000000E-02
  1 7582 2149 1.00000000E-02
  1 1438 1741 1.00000000E-02
  1 1440 1806 1.00000000E-02
  1 1439 1691 1.00000000E-02
  1 7589 2028 1.00000000E-02
  1 7590 2159 1.00000000E-02
  1 5543 1915 1.00000000E-02
  1 1448 1795 1.00000000E-02
  1 1449 1785 1.00000000E-02
  1 5548 1873 1.00000000E-02
  1 3509 1820 1.00000000E-02
  1 1461 1697 1.00000000E-02
  1 7607 2159 1.00000000E-02
  1 5563 1883 1.00000000E-02
  1 7613 2156 1.00000000E-02
  1 3519 1809 1.00000000E-02
  1 3520 1933 1.00000000E-02
  1 5568 1918 1.00000000E-02
  1 1475 1800 1.00000000E-02
  1 7620 2033 1.00000000E-02
  1 1477 1798 1.00000000E-02
  1 5575 1901 1.00000000E-02
  1 1480 1779 1.00000000E-02
  1 1482 1769 1.00000000E-02
  1 5579 1882 1.00000000E-02
  1 3533 1819 1.00000000E-02
  1 1486 1748 1.00000000E-02
  1 1490 1771 1.00000000E-02
  1 7637 2157 1.00000000E-02
  1 7639 2031 1.00000000E-02
  1 1497 1807 1.00000000E-02
  1 7641 2160 1.00000000E-02
  1 5596 1891 1.00000000E-02
  1 1502 1797 1.00000000E-02
  1 5599 2036 1.00000000E-02
  1 5598 1917 1.00000000E-02
  1 5603 1885 1.00000000E-02
  1 5604 1903 1.00000000E-02
  1 1512 1700 1.00000000E-02
  1 1519 1809 1.00000000E-02
  1 5615 1888 1.00000000E-02
  1 7665 2163 1.00000000E-02
  1 1522 1747 1.00000000E-02
  1 7674 2169 1.00000000E-02
  1 3579 1807 1.00000000E-02
  1 3581 1930 1.00000000E-02
  1 7678 2028 1.00000000E-02
  1 5631 1911 1.00000000E-02
  1 1536 1771 1.00000000E-02
  1 7682 2175 1.00000000E-02
  1 5634 1885 1.00000000E-02
  1 5636 1911 1.00000000E-02
  1 1541 1752 1.00000000E-02
  1 3590 1806 1.00000000E-02
  1 3587 1823 1.00000000E-02
  1 1545 1699 1.00000000E-02
  1 3595 1804 1.00000000E-02
  1 5644 1918 1.00000000E-02
  1 7693 2035 1.00000000E-02
  1 7701 2169 1.00000000E-02
  1 1562 1754 1.00000000E-02
  1 3612 1806 1.00000000E-02
  1 7710 2037 1.00000000E-02
  1 1570 1699 1.00000000E-02
  1 1583 1773 1.00000000E-02
  1 5681 1897 1.00000000E-02
  1 7731 2178 1.00000000E-02
  1 3638 1925 1.00000000E-02
  1 7735 2176 1.00000000E-02
  1 7736 2038 1.00000000E-02
  1 5689 1914 1.00000000E-02
  1 1594 1699 1.00000000E-02
  1 1600 1761 1.00000000E-02
  1 5697 1923 1.00000000E-02
  1 3651 1827 1.00000000E-02
  1 5700 1919 1.00000000E-02
  1 1606 1776 1.00000000E-02
  1 7752 2037 1.00000000E-02
  1 1610 1761 1.00000000E-02
  1 1616 1702 1.00000000E-02
  1 5714 1905 1.00000000E-02
  1 1619 1778 1.00000000E-02
  1 7765 2062 1.00000000E-02
  1 7767 2045 1.00000000E-02
  1 5726 1925 1.00000000E-02
  1 7775 2181 1.00000000E-02
  1 7776 2069 1.00000000E-02
  1 5728 1919 1.00000000E-02
  1 7779 2185 1.00000000E-02
  1 5732 1918 1.00000000E-02
  1 3683 1807 1.00000000E-02
  1 3684 1804 1.00000000E-02
  1 7783 2059 1.00000000E-02
  1 7784 2063 1.00000000E-02
  1 7787 2052 1.00000000E-02
  1 3697 1937 1.00000000E-02
  1 3699 1827 1.00000000E-02
  1 1652 1703 1.00000000E-02
  1 5749 1923 1.00000000E-02
  1 7799 2066 1.00000000E-02
  1 5754 1927 1.00000000E-02
  1 1660 1766 1.00000000E-02
  1 1661 1784 1.00000000E-02
  1 7804 2071 1.00000000E-02
  1 7806 2056 1.00000000E-02
  1 5761 1902 1.00000000E-02
  1 7809 2068 1.00000000E-02
  1 7813 2049 1.00000000E-02
  1 5767 1925 1.00000000E-02
  1 7817 2192 1.00000000E-02
  1 7819 2059 1.00000000E-02
  1 1676 1764 1.00000000E-02
  1 7821 2184 1.00000000E-02
  1 7822 2067 1.00000000E-02
  1 5771 1927 1.00000000E-02
  1 7824 2073 1.00000000E-02
  1 1684 1786 1.00000000E-02
  1 7829 2066 1.00000000E-02
  1 3734 1808 1.00000000E-02
  1 7832 2052 1.00000000E-02
  1 3736 1830 1.00000000E-02
  1 5786 1926 1.00000000E-02
  1 3739 1809 1.00000000E-02
  1 1689 1705 1.00000000E-02
  1 3745 1809 1.00000000E-02
  1 5796 1900 1.00000000E-02
  1 7844 2059 1.00000000E-02
  1 5797 1926 1.00000000E-02
  1 1704 1782 1.00000000E-02
  1 5802 1924 1.00000000E-02
  1 3756 1922 1.00000000E-02
  1 7852 2189 1.00000000E-02
  1 3760 1825 1.00000000E-02
  1 7858 2196 1.00000000E-02
  1 1714 1770 1.00000000E-02
  1 1717 1708 1.00000000E-02
  1 7863 2073 1.00000000E-02
  1 3769 1937 1.00000000E-02
  1 1722 1788 1.00000000E-02
  1 3772 1835 1.00000000E-02
  1 7872 2195 1.00000000E-02
  1 3776 1815 1.00000000E-02
  1 1730 1767 1.00000000E-02
  1 3779 1816 1.00000000E-02
  1 7877 2075 1.00000000E-02
  1 5833 1928 1.00000000E-02
  1 1737 1710 1.00000000E-02
  1 7885 2196 1.00000000E-02
  1 1742 1797 1.00000000E-02
  1 5838 1930 1.00000000E-02
  1 5840 1907 1.00000000E-02
  1 1750 1712 1.00000000E-02
  1 5847 1905 1.00000000E-02
  1 7899 2075 1.00000000E-02
  1 3806 1830 1.00000000E-02
  1 1764 1708 1.00000000E-02
  1 3814 1833 1.00000000E-02
  1 7911 2199 1.00000000E-02
  1 1767 1775 1.00000000E-02
  1 1768 1713 1.00000000E-02
  1 7914 2199 1.00000000E-02
  1 3821 1930 1.00000000E-02
  1 1774 1800 1.00000000E-02
  1 1775 1796 1.00000000E-02
  1 5870 1936 1.00000000E-02
  1 3825 1807 1.00000000E-02
  1 3826 1936 1.00000000E-02
  1 3827 1810 1.00000000E-02
  1 3838 1835 1.00000000E-02
  1 7935 2203 1.00000000E-02
  1 1792 1713 1.00000000E-02
  1 1793 1719 1.00000000E-02
  1 3846 1940 1.00000000E-02
  1 5902 1901 1.00000000E-02
  1 7951 2206 1.00000000E-02
  1 5904 1907 1.00000000E-02
  1 7950 2084 1.00000000E-02
  1 7952 2086 1.00000000E-02
  1 3854 1848 1.00000000E-02
  1 1813 1776 1.00000000E-02
  1 5914 1938 1.00000000E-02
  1 7970 2206 1.00000000E-02
  1 1830 1713 1.00000000E-02
  1 5929 1943 1.00000000E-02
  1 1834 1793 1.00000000E-02
  1 1836 1783 1.00000000E-02
  1 7981 2084 1.00000000E-02
  1 3885 1813 1.00000000E-02
  1 3887 1843 1.00000000E-02
  1 7984 2210 1.00000000E-02
  1 3888 1817 1.00000000E-02
  1 3892 1941 1.00000000E-02
  1 3893 1939 1.00000000E-02
  1 1846 1716 1.00000000E-02
  1 7991 2093 1.00000000E-02
  1 7994 2211 1.00000000E-02
  1 5946 1941 1.00000000E-02
  1 1854 1796 1.00000000E-02
  1 5951 1949 1.00000000E-02
  1 5950 1900 1.00000000E-02
  1 1855 1724 1.00000000E-02
  1 3905 1813 1.00000000E-02
  1 8003 2217 1.00000000E-02
  1 1859 1778 1.00000000E-02
  1 3917 1823 1.00000000E-02
  1 8015 2090 1.00000000E-02
  1 5969 1902 1.00000000E-02
  1 1874 1716 1.00000000E-02
  1 1875 1795 1.00000000E-02
  1 5972 1947 1.00000000E-02
  1 3923 1816 1.00000000E-02
  1 8022 2220 1.00000000E-02
  1 3929 1822 1.00000000E-02
  1 5979 1954 1.00000000E-02
  1 8031 2215 1.00000000E-02
  1 8034 2097 1.00000000E-02
  1 3939 1938 1.00000000E-02
  1 3940 1821 1.00000000E-02
  1 3938 1846 1.00000000E-02
  1 5992 1957 1.00000000E-02
  1 5993 1902 1.00000000E-02
  1 3944 1850 1.00000000E-02
  1 5996 1960 1.00000000E-02
  1 1904 1715 1.00000000E-02
  1 8050 2107 1.00000000E-02
  1 6004 1913 1.00000000E-02
  1 8055 2221 1.00000000E-02
  1 1911 1784 1.00000000E-02
  1 8058 2222 1.00000000E-02
  1 8063 2105 1.00000000E-02
  1 6024 1960 1.00000000E-02
  1 1932 1786 1.00000000E-02
  1 3984 1857 1.00000000E-02
  1 3985 1954 1.00000000E-02
  1 1938 1798 1.00000000E-02
  1 1937 1719 1.00000000E-02
  1 8089 2227 1.00000000E-02
  1 6043 1961 1.00000000E-02
  1 3996 1829 1.00000000E-02
  1 8091 2106 1.00000000E-02
  1 1948 1764 1.00000000E-02
  1 1951 1790 1.00000000E-02
  1 1947 1729 1.00000000E-02
  1 4002 1814 1.00000000E-02
  1 1955 1730 1.00000000E-02
  1 8101 2230 1.00000000E-02
  1 1959 1790 1.00000000E-02
  1 6059 1913 1.00000000E-02
  1 4012 1938 1.00000000E-02
  1 1966 1801 1.00000000E-02
  1 4016 1817 1.00000000E-02
  1 6069 1961 1.00000000E-02
  1 8119 2232 1.00000000E-02
  1 6071 1912 1.00000000E-02
  1 8121 2240 1.00000000E-02
  1 1978 1795 1.00000000E-02
  1 8123 2123 1.00000000E-02
  1 4029 1829 1.00000000E-02
  1 4031 1856 1.00000000E-02
  1 1987 1764 1.00000000E-02
  1 8133 2110 1.00000000E-02
  1 6086 1920 1.00000000E-02
  1 6089 1960 1.00000000E-02
  1 8138 2239 1.00000000E-02
  1 8139 2248 1.00000000E-02
  1 1993 1734 1.00000000E-02
  1 6100 1917 1.00000000E-02
  1 6102 1966 1.00000000E-02
  1 8153 2249 1.00000000E-02
  1 4062 1956 1.00000000E-02
  1 8163 2119 1.00000000E-02
  1 2021 1801 1.00000000E-02
  1 8167 2243 1.00000000E-02
  1 6120 1968 1.00000000E-02
  1 6119 1918 1.00000000E-02
  1 8172 2113 1.00000000E-02
  1 2033 1763 1.00000000E-02
  1 2035 1800 1.00000000E-02
  1 8186 2115 1.00000000E-02
  1 8189 2256 1.00000000E-02
  1 4094 1940 1.00000000E-02
  1 8191 2250 1.00000000E-02
END period  1

BEGIN period  2
  1 2050 1.80200000E+03 1.00000000E-02
  1 4102 1.81600000E+03 1.00000000E-02
  1 6151 1.97000000E+03 1.00000000E-02
  1 4104 1.81300000E+03 1.00000000E-02
  1 6153 1.97400000E+03 1.00000000E-02
  1 4106 1.83100000E+03 1.00000000E-02
  1 2054 1.73500000E+03 1.00000000E-02
  1 9 1.63300000E+03 1.00000000E-02
  1 6157 1.96900000E+03 1.00000000E-02